file 25194214 1716916709                                        
version 3
run Multiple-UEs-2-20240528-19:18:05-10876
attr configname Multiple-UEs
attr datetime 20240528-19:18:05
attr datetimef 20240528-191805
attr experiment Multiple-UEs
attr inifile omnetpp.ini
attr iterationvars $numUes=10
attr iterationvarsd numUes=10
attr iterationvarsf numUes=10-
attr measurement $numUes=10
attr network simu5g.simulations.NR.networks.SingleCell_Standalone
attr processid 10876
attr repetition 0
attr replication #0
attr resultdir results
attr runnumber 2
attr seedset 0
itervar numUes 10
config image-path ../../../images;../../../../INET4.5/images
config extends BgTraffic
config *.numUe 10
config *.ue[*].mobility.initialX uniform(0m,1000m)
config *.ue[*].mobility.initialY uniform(0m,1000m)
config *.server.numApps 10
config output-scalar-file results/Multiple-UEs/$numUes=10-0.sca
config output-vector-file results/Multiple-UEs/$numUes=10-0.vec
config extends Single-UE
config *.numBgCells 1
config *.bgCell[*].bgScheduler.isNr true
config *.bgCell[*].bgScheduler.txPower 23
config *.bgCell[*].mobility.initialX 750m
config *.bgCell[*].mobility.initialY 1000m
config *.bgCell[*].bgTrafficGenerator.numBgUes 10
config *.bgCell[*].bgTrafficGenerator.bgUE[*].mobility.initialX uniform(500m,1000m)
config *.bgCell[*].bgTrafficGenerator.bgUE[*].mobility.initialY uniform(500m,1000m)
config *.bgCell[*].bgTrafficGenerator.bgUE[*].trafficGeneratorType "\"TrafficGeneratorCbr\""
config *.bgCell[*].bgTrafficGenerator.bgUE[*].generator.startTimeDl uniform(0s,0.05s)
config *.bgCell[*].bgTrafficGenerator.bgUE[*].generator.packetSizeDl 1000B
config *.bgCell[*].bgTrafficGenerator.bgUE[*].generator.periodDl 0.01s
config *.gnb.mobility.initialX 500m
config *.gnb.mobility.initialY 500m
config *.numUe 1
config *.ue[*].mobility.initialX 500m
config *.ue[*].mobility.initialY 900m
config *.ue[*].macCellId 0
config *.ue[*].masterId 0
config *.ue[*].nrMacCellId 1
config *.ue[*].nrMasterId 1
config *.ue[*].numApps 1
config *.server.numApps 1
config *.ue[*].app[*].typename CbrReceiver
config *.ue[*].app[*].localPort 1000
config *.server.app[*].typename CbrSender
config *.server.app[*].PacketSize 1000
config *.server.app[*].sampling_time 0.01s
config *.server.app[*].destAddress "\"ue[\"+string(ancestorIndex(0))+\"]\""
config *.server.app[*].destPort 1000
config *.server.app[*].localPort 3088+ancestorIndex(0)
config *.server.app[*].startTime uniform(0.01s,0.05s)
config output-scalar-file-append false
config network simu5g.simulations.NR.networks.SingleCell_Standalone
config sim-time-limit 10s
config warmup-period 1s
config seed-set 0
config output-scalar-file results/Multiple-UEs/0.sca
config output-vector-file results/Multiple-UEs/0.vec
config **.routingRecorder.enabled false
config **.amcType "\"NRAmc\""
config **.targetBler 0.01
config **.blerShift 5
config *.configurator.config "xmldoc(\"./demo.xml\")"
config **.mobility.constraintAreaMaxX 1000m
config **.mobility.constraintAreaMaxY 1000m
config **.mobility.constraintAreaMinX 0m
config **.mobility.constraintAreaMinY 0m
config **.mobility.constraintAreaMinZ 0m
config **.mobility.constraintAreaMaxZ 0m
config **.mobility.initFromDisplayString false

vector 0 SingleCell_Standalone.server.ppp[0].queue queueLength:vector ETV
attr autoWarmupFilter false
attr interpolationmode sample-hold
attr recordingmode vector
attr source "warmup(atomic(constant0(packetPushEnded) + count(packetPushStarted) - count(packetPulled) - count(packetRemoved) - count(packetDropped)))"
attr title "queue length"
attr unit pk
vector 1 SingleCell_Standalone.server.ppp[0].queue queueBitLength:vector ETV
attr autoWarmupFilter false
attr interpolationmode sample-hold
attr recordingmode vector
attr source "warmup(atomic(constant0(packetPushEnded) + sum(packetLength(packetPushStarted)) - sum(packetLength(packetPulled)) - sum(packetLength(packetRemoved)) - sum(packetLength(packetDropped))))"
attr title "queue bit length"
attr unit b
vector 2 SingleCell_Standalone.server.udp passedUpPk:vector(count) ETV
attr interpolationmode none
attr recordingmode vector(count)
attr source packetSentToUpper
attr title "packets passed up, count"
vector 3 SingleCell_Standalone.server.udp droppedPkWrongPort:vector(count) ETV
attr interpolationmode none
attr recordingmode vector(count)
attr source packetDropReasonIsNoPortFound(packetDropped)
attr title "packets dropped (wrong port), count"
vector 4 SingleCell_Standalone.server.udp droppedPkBadChecksum:vector(count) ETV
attr interpolationmode none
attr recordingmode vector(count)
attr source packetDropReasonIsIncorrectlyReceived(packetDropped)
attr title "packets dropped (checksum error), count"
vector 5 SingleCell_Standalone.router.ppp[0].queue queueLength:vector ETV
attr autoWarmupFilter false
attr interpolationmode sample-hold
attr recordingmode vector
attr source "warmup(atomic(constant0(packetPushEnded) + count(packetPushStarted) - count(packetPulled) - count(packetRemoved) - count(packetDropped)))"
attr title "queue length"
attr unit pk
vector 6 SingleCell_Standalone.router.ppp[0].queue queueBitLength:vector ETV
attr autoWarmupFilter false
attr interpolationmode sample-hold
attr recordingmode vector
attr source "warmup(atomic(constant0(packetPushEnded) + sum(packetLength(packetPushStarted)) - sum(packetLength(packetPulled)) - sum(packetLength(packetRemoved)) - sum(packetLength(packetDropped))))"
attr title "queue bit length"
attr unit b
vector 7 SingleCell_Standalone.router.ppp[1].queue queueLength:vector ETV
attr autoWarmupFilter false
attr interpolationmode sample-hold
attr recordingmode vector
attr source "warmup(atomic(constant0(packetPushEnded) + count(packetPushStarted) - count(packetPulled) - count(packetRemoved) - count(packetDropped)))"
attr title "queue length"
attr unit pk
vector 8 SingleCell_Standalone.router.ppp[1].queue queueBitLength:vector ETV
attr autoWarmupFilter false
attr interpolationmode sample-hold
attr recordingmode vector
attr source "warmup(atomic(constant0(packetPushEnded) + sum(packetLength(packetPushStarted)) - sum(packetLength(packetPulled)) - sum(packetLength(packetRemoved)) - sum(packetLength(packetDropped))))"
attr title "queue bit length"
attr unit b
vector 9 SingleCell_Standalone.upf.ppp[0].queue queueLength:vector ETV
attr autoWarmupFilter false
attr interpolationmode sample-hold
attr recordingmode vector
attr source "warmup(atomic(constant0(packetPushEnded) + count(packetPushStarted) - count(packetPulled) - count(packetRemoved) - count(packetDropped)))"
attr title "queue length"
attr unit pk
vector 10 SingleCell_Standalone.upf.ppp[0].queue queueBitLength:vector ETV
attr autoWarmupFilter false
attr interpolationmode sample-hold
attr recordingmode vector
attr source "warmup(atomic(constant0(packetPushEnded) + sum(packetLength(packetPushStarted)) - sum(packetLength(packetPulled)) - sum(packetLength(packetRemoved)) - sum(packetLength(packetDropped))))"
attr title "queue bit length"
attr unit b
vector 11 SingleCell_Standalone.upf.pppIf.queue queueLength:vector ETV
attr autoWarmupFilter false
attr interpolationmode sample-hold
attr recordingmode vector
attr source "warmup(atomic(constant0(packetPushEnded) + count(packetPushStarted) - count(packetPulled) - count(packetRemoved) - count(packetDropped)))"
attr title "queue length"
attr unit pk
vector 12 SingleCell_Standalone.upf.pppIf.queue queueBitLength:vector ETV
attr autoWarmupFilter false
attr interpolationmode sample-hold
attr recordingmode vector
attr source "warmup(atomic(constant0(packetPushEnded) + sum(packetLength(packetPushStarted)) - sum(packetLength(packetPulled)) - sum(packetLength(packetRemoved)) - sum(packetLength(packetDropped))))"
attr title "queue bit length"
attr unit b
vector 13 SingleCell_Standalone.upf.udp passedUpPk:vector(count) ETV
attr interpolationmode none
attr recordingmode vector(count)
attr source packetSentToUpper
attr title "packets passed up, count"
vector 14 SingleCell_Standalone.upf.udp droppedPkWrongPort:vector(count) ETV
attr interpolationmode none
attr recordingmode vector(count)
attr source packetDropReasonIsNoPortFound(packetDropped)
attr title "packets dropped (wrong port), count"
vector 15 SingleCell_Standalone.upf.udp droppedPkBadChecksum:vector(count) ETV
attr interpolationmode none
attr recordingmode vector(count)
attr source packetDropReasonIsIncorrectlyReceived(packetDropped)
attr title "packets dropped (checksum error), count"
vector 16 SingleCell_Standalone.iUpf.ppp[0].queue queueLength:vector ETV
attr autoWarmupFilter false
attr interpolationmode sample-hold
attr recordingmode vector
attr source "warmup(atomic(constant0(packetPushEnded) + count(packetPushStarted) - count(packetPulled) - count(packetRemoved) - count(packetDropped)))"
attr title "queue length"
attr unit pk
vector 17 SingleCell_Standalone.iUpf.ppp[0].queue queueBitLength:vector ETV
attr autoWarmupFilter false
attr interpolationmode sample-hold
attr recordingmode vector
attr source "warmup(atomic(constant0(packetPushEnded) + sum(packetLength(packetPushStarted)) - sum(packetLength(packetPulled)) - sum(packetLength(packetRemoved)) - sum(packetLength(packetDropped))))"
attr title "queue bit length"
attr unit b
vector 18 SingleCell_Standalone.iUpf.ppp[1].queue queueLength:vector ETV
attr autoWarmupFilter false
attr interpolationmode sample-hold
attr recordingmode vector
attr source "warmup(atomic(constant0(packetPushEnded) + count(packetPushStarted) - count(packetPulled) - count(packetRemoved) - count(packetDropped)))"
attr title "queue length"
attr unit pk
vector 19 SingleCell_Standalone.iUpf.ppp[1].queue queueBitLength:vector ETV
attr autoWarmupFilter false
attr interpolationmode sample-hold
attr recordingmode vector
attr source "warmup(atomic(constant0(packetPushEnded) + sum(packetLength(packetPushStarted)) - sum(packetLength(packetPulled)) - sum(packetLength(packetRemoved)) - sum(packetLength(packetDropped))))"
attr title "queue bit length"
attr unit b
vector 20 SingleCell_Standalone.iUpf.pppIf.queue queueLength:vector ETV
attr autoWarmupFilter false
attr interpolationmode sample-hold
attr recordingmode vector
attr source "warmup(atomic(constant0(packetPushEnded) + count(packetPushStarted) - count(packetPulled) - count(packetRemoved) - count(packetDropped)))"
attr title "queue length"
attr unit pk
vector 21 SingleCell_Standalone.iUpf.pppIf.queue queueBitLength:vector ETV
attr autoWarmupFilter false
attr interpolationmode sample-hold
attr recordingmode vector
attr source "warmup(atomic(constant0(packetPushEnded) + sum(packetLength(packetPushStarted)) - sum(packetLength(packetPulled)) - sum(packetLength(packetRemoved)) - sum(packetLength(packetDropped))))"
attr title "queue bit length"
attr unit b
vector 22 SingleCell_Standalone.iUpf.udp passedUpPk:vector(count) ETV
attr interpolationmode none
attr recordingmode vector(count)
attr source packetSentToUpper
attr title "packets passed up, count"
vector 23 SingleCell_Standalone.iUpf.udp droppedPkWrongPort:vector(count) ETV
attr interpolationmode none
attr recordingmode vector(count)
attr source packetDropReasonIsNoPortFound(packetDropped)
attr title "packets dropped (wrong port), count"
vector 24 SingleCell_Standalone.iUpf.udp droppedPkBadChecksum:vector(count) ETV
attr interpolationmode none
attr recordingmode vector(count)
attr source packetDropReasonIsIncorrectlyReceived(packetDropped)
attr title "packets dropped (checksum error), count"
vector 25 SingleCell_Standalone.gnb.pppIf.queue queueLength:vector ETV
attr autoWarmupFilter false
attr interpolationmode sample-hold
attr recordingmode vector
attr source "warmup(atomic(constant0(packetPushEnded) + count(packetPushStarted) - count(packetPulled) - count(packetRemoved) - count(packetDropped)))"
attr title "queue length"
attr unit pk
vector 26 SingleCell_Standalone.gnb.pppIf.queue queueBitLength:vector ETV
attr autoWarmupFilter false
attr interpolationmode sample-hold
attr recordingmode vector
attr source "warmup(atomic(constant0(packetPushEnded) + sum(packetLength(packetPushStarted)) - sum(packetLength(packetPulled)) - sum(packetLength(packetRemoved)) - sum(packetLength(packetDropped))))"
attr title "queue bit length"
attr unit b
vector 27 SingleCell_Standalone.gnb.pppMEHostIf.queue queueLength:vector ETV
attr autoWarmupFilter false
attr interpolationmode sample-hold
attr recordingmode vector
attr source "warmup(atomic(constant0(packetPushEnded) + count(packetPushStarted) - count(packetPulled) - count(packetRemoved) - count(packetDropped)))"
attr title "queue length"
attr unit pk
vector 28 SingleCell_Standalone.gnb.pppMEHostIf.queue queueBitLength:vector ETV
attr autoWarmupFilter false
attr interpolationmode sample-hold
attr recordingmode vector
attr source "warmup(atomic(constant0(packetPushEnded) + sum(packetLength(packetPushStarted)) - sum(packetLength(packetPulled)) - sum(packetLength(packetRemoved)) - sum(packetLength(packetDropped))))"
attr title "queue bit length"
attr unit b
vector 29 SingleCell_Standalone.gnb.udp passedUpPk:vector(count) ETV
attr interpolationmode none
attr recordingmode vector(count)
attr source packetSentToUpper
attr title "packets passed up, count"
vector 30 SingleCell_Standalone.gnb.udp droppedPkWrongPort:vector(count) ETV
attr interpolationmode none
attr recordingmode vector(count)
attr source packetDropReasonIsNoPortFound(packetDropped)
attr title "packets dropped (wrong port), count"
vector 31 SingleCell_Standalone.gnb.udp droppedPkBadChecksum:vector(count) ETV
attr interpolationmode none
attr recordingmode vector(count)
attr source packetDropReasonIsIncorrectlyReceived(packetDropped)
attr title "packets dropped (checksum error), count"
vector 32 SingleCell_Standalone.ue[0].udp passedUpPk:vector(count) ETV
attr interpolationmode none
attr recordingmode vector(count)
attr source packetSentToUpper
attr title "packets passed up, count"
vector 33 SingleCell_Standalone.ue[0].udp droppedPkWrongPort:vector(count) ETV
attr interpolationmode none
attr recordingmode vector(count)
attr source packetDropReasonIsNoPortFound(packetDropped)
attr title "packets dropped (wrong port), count"
vector 34 SingleCell_Standalone.ue[0].udp droppedPkBadChecksum:vector(count) ETV
attr interpolationmode none
attr recordingmode vector(count)
attr source packetDropReasonIsIncorrectlyReceived(packetDropped)
attr title "packets dropped (checksum error), count"
vector 35 SingleCell_Standalone.ue[1].udp passedUpPk:vector(count) ETV
attr interpolationmode none
attr recordingmode vector(count)
attr source packetSentToUpper
attr title "packets passed up, count"
vector 36 SingleCell_Standalone.ue[1].udp droppedPkWrongPort:vector(count) ETV
attr interpolationmode none
attr recordingmode vector(count)
attr source packetDropReasonIsNoPortFound(packetDropped)
attr title "packets dropped (wrong port), count"
vector 37 SingleCell_Standalone.ue[1].udp droppedPkBadChecksum:vector(count) ETV
attr interpolationmode none
attr recordingmode vector(count)
attr source packetDropReasonIsIncorrectlyReceived(packetDropped)
attr title "packets dropped (checksum error), count"
vector 38 SingleCell_Standalone.ue[2].udp passedUpPk:vector(count) ETV
attr interpolationmode none
attr recordingmode vector(count)
attr source packetSentToUpper
attr title "packets passed up, count"
vector 39 SingleCell_Standalone.ue[2].udp droppedPkWrongPort:vector(count) ETV
attr interpolationmode none
attr recordingmode vector(count)
attr source packetDropReasonIsNoPortFound(packetDropped)
attr title "packets dropped (wrong port), count"
vector 40 SingleCell_Standalone.ue[2].udp droppedPkBadChecksum:vector(count) ETV
attr interpolationmode none
attr recordingmode vector(count)
attr source packetDropReasonIsIncorrectlyReceived(packetDropped)
attr title "packets dropped (checksum error), count"
vector 41 SingleCell_Standalone.ue[3].udp passedUpPk:vector(count) ETV
attr interpolationmode none
attr recordingmode vector(count)
attr source packetSentToUpper
attr title "packets passed up, count"
vector 42 SingleCell_Standalone.ue[3].udp droppedPkWrongPort:vector(count) ETV
attr interpolationmode none
attr recordingmode vector(count)
attr source packetDropReasonIsNoPortFound(packetDropped)
attr title "packets dropped (wrong port), count"
vector 43 SingleCell_Standalone.ue[3].udp droppedPkBadChecksum:vector(count) ETV
attr interpolationmode none
attr recordingmode vector(count)
attr source packetDropReasonIsIncorrectlyReceived(packetDropped)
attr title "packets dropped (checksum error), count"
vector 44 SingleCell_Standalone.ue[4].udp passedUpPk:vector(count) ETV
attr interpolationmode none
attr recordingmode vector(count)
attr source packetSentToUpper
attr title "packets passed up, count"
vector 45 SingleCell_Standalone.ue[4].udp droppedPkWrongPort:vector(count) ETV
attr interpolationmode none
attr recordingmode vector(count)
attr source packetDropReasonIsNoPortFound(packetDropped)
attr title "packets dropped (wrong port), count"
vector 46 SingleCell_Standalone.ue[4].udp droppedPkBadChecksum:vector(count) ETV
attr interpolationmode none
attr recordingmode vector(count)
attr source packetDropReasonIsIncorrectlyReceived(packetDropped)
attr title "packets dropped (checksum error), count"
vector 47 SingleCell_Standalone.ue[5].udp passedUpPk:vector(count) ETV
attr interpolationmode none
attr recordingmode vector(count)
attr source packetSentToUpper
attr title "packets passed up, count"
vector 48 SingleCell_Standalone.ue[5].udp droppedPkWrongPort:vector(count) ETV
attr interpolationmode none
attr recordingmode vector(count)
attr source packetDropReasonIsNoPortFound(packetDropped)
attr title "packets dropped (wrong port), count"
vector 49 SingleCell_Standalone.ue[5].udp droppedPkBadChecksum:vector(count) ETV
attr interpolationmode none
attr recordingmode vector(count)
attr source packetDropReasonIsIncorrectlyReceived(packetDropped)
attr title "packets dropped (checksum error), count"
vector 50 SingleCell_Standalone.ue[6].udp passedUpPk:vector(count) ETV
attr interpolationmode none
attr recordingmode vector(count)
attr source packetSentToUpper
attr title "packets passed up, count"
vector 51 SingleCell_Standalone.ue[6].udp droppedPkWrongPort:vector(count) ETV
attr interpolationmode none
attr recordingmode vector(count)
attr source packetDropReasonIsNoPortFound(packetDropped)
attr title "packets dropped (wrong port), count"
vector 52 SingleCell_Standalone.ue[6].udp droppedPkBadChecksum:vector(count) ETV
attr interpolationmode none
attr recordingmode vector(count)
attr source packetDropReasonIsIncorrectlyReceived(packetDropped)
attr title "packets dropped (checksum error), count"
vector 53 SingleCell_Standalone.ue[7].udp passedUpPk:vector(count) ETV
attr interpolationmode none
attr recordingmode vector(count)
attr source packetSentToUpper
attr title "packets passed up, count"
vector 54 SingleCell_Standalone.ue[7].udp droppedPkWrongPort:vector(count) ETV
attr interpolationmode none
attr recordingmode vector(count)
attr source packetDropReasonIsNoPortFound(packetDropped)
attr title "packets dropped (wrong port), count"
vector 55 SingleCell_Standalone.ue[7].udp droppedPkBadChecksum:vector(count) ETV
attr interpolationmode none
attr recordingmode vector(count)
attr source packetDropReasonIsIncorrectlyReceived(packetDropped)
attr title "packets dropped (checksum error), count"
vector 56 SingleCell_Standalone.ue[8].udp passedUpPk:vector(count) ETV
attr interpolationmode none
attr recordingmode vector(count)
attr source packetSentToUpper
attr title "packets passed up, count"
vector 57 SingleCell_Standalone.ue[8].udp droppedPkWrongPort:vector(count) ETV
attr interpolationmode none
attr recordingmode vector(count)
attr source packetDropReasonIsNoPortFound(packetDropped)
attr title "packets dropped (wrong port), count"
vector 58 SingleCell_Standalone.ue[8].udp droppedPkBadChecksum:vector(count) ETV
attr interpolationmode none
attr recordingmode vector(count)
attr source packetDropReasonIsIncorrectlyReceived(packetDropped)
attr title "packets dropped (checksum error), count"
vector 59 SingleCell_Standalone.ue[9].udp passedUpPk:vector(count) ETV
attr interpolationmode none
attr recordingmode vector(count)
attr source packetSentToUpper
attr title "packets passed up, count"
vector 60 SingleCell_Standalone.ue[9].udp droppedPkWrongPort:vector(count) ETV
attr interpolationmode none
attr recordingmode vector(count)
attr source packetDropReasonIsNoPortFound(packetDropped)
attr title "packets dropped (wrong port), count"
vector 61 SingleCell_Standalone.ue[9].udp droppedPkBadChecksum:vector(count) ETV
attr interpolationmode none
attr recordingmode vector(count)
attr source packetDropReasonIsIncorrectlyReceived(packetDropped)
attr title "packets dropped (checksum error), count"
vector 62 SingleCell_Standalone.bgCell[0].bgScheduler bgAvgServedBlocksUl:vector ETV
attr recordingmode vector
attr source bgAvgServedBlocksUl
attr title "Average UL served blocks for background cells"
attr unit ""
vector 63 SingleCell_Standalone.bgCell[0].bgTrafficGenerator.bgUE[0].generator bgAverageCqiDl:vector ETV
attr recordingmode vector
attr source bgAverageCqiDl
attr title "Average DL CQI for background UEs"
attr unit ""
vector 64 SingleCell_Standalone.bgCell[0].bgTrafficGenerator.bgUE[0].generator bgHarqErrorRateDl:vector ETV
attr recordingmode vector
attr source bgHarqErrorRateDl
attr title "Average DL HARQ error rate for background UEs"
attr unit ""
vector 65 SingleCell_Standalone.bgCell[0].bgScheduler bgAvgServedBlocksDl:vector ETV
attr recordingmode vector
attr source bgAvgServedBlocksDl
attr title "Average DL served blocks for background cells"
attr unit ""
vector 66 SingleCell_Standalone.gnb.cellularNic.mac avgServedBlocksUl:vector ETV
attr recordingmode vector
attr source avgServedBlocksUl
attr title "Avg Served Blocks Ul"
attr unit blocks
vector 67 SingleCell_Standalone.gnb.cellularNic.mac avgServedBlocksDl:vector ETV
attr recordingmode vector
attr source avgServedBlocksDl
attr title "Avg Served Blocks Dl"
attr unit blocks
vector 68 SingleCell_Standalone.gnb.cellularNic.mac sentPacketToUpperLayer:vector(packetBytes) ETV
attr interpolationmode none
attr recordingmode vector(packetBytes)
attr source sentPacketToUpperLayer
vector 69 SingleCell_Standalone.gnb.cellularNic.rlc.um rlcPacketLossDl:vector ETV
attr recordingmode vector
attr source rlcPacketLossDl
attr title "rlc Packet Loss"
attr unit ""
vector 70 SingleCell_Standalone.gnb.cellularNic.rlc.um sentPacketToLowerLayer:vector(packetBytes) ETV
attr interpolationmode none
attr recordingmode vector(packetBytes)
attr source sentPacketToLowerLayer
vector 71 SingleCell_Standalone.gnb.cellularNic.mac receivedPacketFromUpperLayer:vector(packetBytes) ETV
attr interpolationmode none
attr recordingmode vector(packetBytes)
attr source receivedPacketFromUpperLayer
vector 72 SingleCell_Standalone.ue[8].cellularNic.nrMac sentPacketToLowerLayer:vector(packetBytes) ETV
attr interpolationmode none
attr recordingmode vector(packetBytes)
attr source sentPacketToLowerLayer
vector 73 SingleCell_Standalone.gnb.cellularNic.mac macDelayDl:vector ETV
attr recordingmode vector
attr source macDelayDl
attr title "Delay at the MAC layer UL"
attr unit s
vector 74 SingleCell_Standalone.ue[8].cellularNic.nrMac sentPacketToUpperLayer:vector(packetBytes) ETV
attr interpolationmode none
attr recordingmode vector(packetBytes)
attr source sentPacketToUpperLayer
vector 75 SingleCell_Standalone.ue[8].cellularNic.nrRlc.um receivedPacketFromLowerLayer:vector(packetBytes) ETV
attr interpolationmode none
attr recordingmode vector(packetBytes)
attr source receivedPacketFromLowerLayer
vector 76 SingleCell_Standalone.ue[8].cellularNic.nrRlc.um rlcPduThroughputDl:vector ETV
attr recordingmode vector
attr source rlcPduThroughputDl
attr title "Throughput at the rlc layer DL"
attr unit Bps
vector 77 SingleCell_Standalone.ue[8].cellularNic.nrRlc.um rlcPduDelayDl:vector ETV
attr recordingmode vector
attr source rlcPduDelayDl
attr title "Delay at the rlc layer UL"
attr unit s
vector 78 SingleCell_Standalone.ue[8].cellularNic.nrRlc.um rlcPduPacketLossDl:vector ETV
attr recordingmode vector
attr source rlcPduPacketLossDl
attr title "rlc Packet Loss"
attr unit ""
vector 79 SingleCell_Standalone.gnb.cellularNic.mac sentPacketToLowerLayer:vector(packetBytes) ETV
attr interpolationmode none
attr recordingmode vector(packetBytes)
attr source sentPacketToLowerLayer
vector 80 SingleCell_Standalone.gnb.cellularNic.mac receivedPacketFromLowerLayer:vector(packetBytes) ETV
attr interpolationmode none
attr recordingmode vector(packetBytes)
attr source receivedPacketFromLowerLayer
vector 81 SingleCell_Standalone.ue[8].cellularNic.nrMac harqErrorRate_1st_Dl:vector ETV
attr recordingmode vector
attr source harqErrorRate_1st_Dl
attr title "Harq Error Rate Dl (1st tx)"
attr unit ""
vector 82 SingleCell_Standalone.ue[8].cellularNic.nrMac harqErrorRateDl:vector ETV
attr recordingmode vector
attr source harqErrorRateDl
attr title "Harq Error Rate Dl"
attr unit ""
vector 83 SingleCell_Standalone.ue[8].cellularNic.nrMac harqTxAttemptsDl:vector ETV
attr recordingmode vector
attr source harqTxAttemptsDl
attr title "Harq Tx Attempts Dl"
attr unit ""
vector 84 SingleCell_Standalone.ue[9].cellularNic.nrMac harqErrorRate_1st_Dl:vector ETV
attr recordingmode vector
attr source harqErrorRate_1st_Dl
attr title "Harq Error Rate Dl (1st tx)"
attr unit ""
vector 85 SingleCell_Standalone.ue[9].cellularNic.nrMac harqErrorRateDl:vector ETV
attr recordingmode vector
attr source harqErrorRateDl
attr title "Harq Error Rate Dl"
attr unit ""
vector 86 SingleCell_Standalone.ue[9].cellularNic.nrMac harqTxAttemptsDl:vector ETV
attr recordingmode vector
attr source harqTxAttemptsDl
attr title "Harq Tx Attempts Dl"
attr unit ""
vector 87 SingleCell_Standalone.ue[5].cellularNic.nrPhy averageCqiDl:vector ETV
attr recordingmode vector
attr source averageCqiDl
attr title "Average Cqi reported in DL"
attr unit cqi
vector 88 SingleCell_Standalone.ue[5].cellularNic.nrChannelModel[0] distance:vector ETV
attr recordingmode vector
attr source distance
attr title "distance between UE and serving base station"
attr unit meters
vector 89 SingleCell_Standalone.ue[5].cellularNic.nrChannelModel[0] rcvdSinrDl:vector ETV
attr recordingmode vector
attr source rcvdSinrDl
attr title "SINR measured at packet reception, DL"
attr unit dB
vector 90 SingleCell_Standalone.ue[5].cellularNic.nrMac receivedPacketFromLowerLayer:vector(packetBytes) ETV
attr interpolationmode none
attr recordingmode vector(packetBytes)
attr source receivedPacketFromLowerLayer
vector 91 SingleCell_Standalone.ue[7].cellularNic.nrPhy averageCqiDl:vector ETV
attr recordingmode vector
attr source averageCqiDl
attr title "Average Cqi reported in DL"
attr unit cqi
vector 92 SingleCell_Standalone.ue[7].cellularNic.nrChannelModel[0] distance:vector ETV
attr recordingmode vector
attr source distance
attr title "distance between UE and serving base station"
attr unit meters
vector 93 SingleCell_Standalone.ue[7].cellularNic.nrChannelModel[0] rcvdSinrDl:vector ETV
attr recordingmode vector
attr source rcvdSinrDl
attr title "SINR measured at packet reception, DL"
attr unit dB
vector 94 SingleCell_Standalone.ue[7].cellularNic.nrMac receivedPacketFromLowerLayer:vector(packetBytes) ETV
attr interpolationmode none
attr recordingmode vector(packetBytes)
attr source receivedPacketFromLowerLayer
vector 95 SingleCell_Standalone.server.udp packetSent:vector(packetBytes) ETV
attr interpolationmode none
attr recordingmode vector(packetBytes)
attr source packetSent
attr title "packets sent, packetBytes"
vector 96 SingleCell_Standalone.server.ppp[0].queue incomingPacketLengths:vector ETV
attr interpolationmode none
attr recordingmode vector
attr source packetLength(packetPushStarted)
attr title "incoming packet lengths"
attr unit b
vector 97 SingleCell_Standalone.server.ppp[0].queue queueingTime:vector ETV
attr interpolationmode none
attr recordingmode vector
attr source queueingTime(packetPulled)
attr title "queueing times"
attr unit s
vector 98 SingleCell_Standalone.server.ppp[0].queue outgoingPacketLengths:vector ETV
attr interpolationmode none
attr recordingmode vector
attr source packetLength(packetPulled)
attr title "outgoing packet lengths"
attr unit b
vector 99 SingleCell_Standalone.server.ppp[0].ppp rcvdPkFromHl:vector(packetBytes) ETV
attr interpolationmode none
attr recordingmode vector(packetBytes)
attr source packetReceivedFromUpper
attr title "packets received from higher layer, packetBytes"
vector 100 SingleCell_Standalone.server.ppp[0].ppp transmissionState:vector ETV
attr interpolationmode sample-hold
attr recordingmode vector
attr source transmissionStateChanged
attr title "tx state"
vector 101 SingleCell_Standalone.server.ppp[0].ppp txPk:vector(packetBytes) ETV
attr interpolationmode none
attr recordingmode vector(packetBytes)
attr source packetSentToLower
attr title "packets transmitted, packetBytes"
vector 102 SingleCell_Standalone.router.ppp[0].ppp rxPkOk:vector(packetBytes) ETV
attr interpolationmode none
attr recordingmode vector(packetBytes)
attr source rxPkOk
attr title "packets received OK, packetBytes"
vector 103 SingleCell_Standalone.router.ppp[0].ppp passedUpPk:vector(packetBytes) ETV
attr interpolationmode none
attr recordingmode vector(packetBytes)
attr source packetSentToUpper
attr title "packets passed to higher layer, packetBytes"
vector 104 SingleCell_Standalone.router.ppp[1].queue incomingPacketLengths:vector ETV
attr interpolationmode none
attr recordingmode vector
attr source packetLength(packetPushStarted)
attr title "incoming packet lengths"
attr unit b
vector 105 SingleCell_Standalone.router.ppp[1].queue queueingTime:vector ETV
attr interpolationmode none
attr recordingmode vector
attr source queueingTime(packetPulled)
attr title "queueing times"
attr unit s
vector 106 SingleCell_Standalone.router.ppp[1].queue outgoingPacketLengths:vector ETV
attr interpolationmode none
attr recordingmode vector
attr source packetLength(packetPulled)
attr title "outgoing packet lengths"
attr unit b
vector 107 SingleCell_Standalone.router.ppp[1].ppp rcvdPkFromHl:vector(packetBytes) ETV
attr interpolationmode none
attr recordingmode vector(packetBytes)
attr source packetReceivedFromUpper
attr title "packets received from higher layer, packetBytes"
vector 108 SingleCell_Standalone.router.ppp[1].ppp transmissionState:vector ETV
attr interpolationmode sample-hold
attr recordingmode vector
attr source transmissionStateChanged
attr title "tx state"
vector 109 SingleCell_Standalone.router.ppp[1].ppp txPk:vector(packetBytes) ETV
attr interpolationmode none
attr recordingmode vector(packetBytes)
attr source packetSentToLower
attr title "packets transmitted, packetBytes"
vector 110 SingleCell_Standalone.upf.pppIf.ppp rxPkOk:vector(packetBytes) ETV
attr interpolationmode none
attr recordingmode vector(packetBytes)
attr source rxPkOk
attr title "packets received OK, packetBytes"
vector 111 SingleCell_Standalone.upf.pppIf.ppp passedUpPk:vector(packetBytes) ETV
attr interpolationmode none
attr recordingmode vector(packetBytes)
attr source packetSentToUpper
attr title "packets passed to higher layer, packetBytes"
vector 112 SingleCell_Standalone.upf.udp packetSent:vector(packetBytes) ETV
attr interpolationmode none
attr recordingmode vector(packetBytes)
attr source packetSent
attr title "packets sent, packetBytes"
vector 113 SingleCell_Standalone.upf.ppp[0].queue incomingPacketLengths:vector ETV
attr interpolationmode none
attr recordingmode vector
attr source packetLength(packetPushStarted)
attr title "incoming packet lengths"
attr unit b
vector 114 SingleCell_Standalone.upf.ppp[0].queue queueingTime:vector ETV
attr interpolationmode none
attr recordingmode vector
attr source queueingTime(packetPulled)
attr title "queueing times"
attr unit s
vector 115 SingleCell_Standalone.upf.ppp[0].queue outgoingPacketLengths:vector ETV
attr interpolationmode none
attr recordingmode vector
attr source packetLength(packetPulled)
attr title "outgoing packet lengths"
attr unit b
vector 116 SingleCell_Standalone.upf.ppp[0].ppp rcvdPkFromHl:vector(packetBytes) ETV
attr interpolationmode none
attr recordingmode vector(packetBytes)
attr source packetReceivedFromUpper
attr title "packets received from higher layer, packetBytes"
vector 117 SingleCell_Standalone.upf.ppp[0].ppp transmissionState:vector ETV
attr interpolationmode sample-hold
attr recordingmode vector
attr source transmissionStateChanged
attr title "tx state"
vector 118 SingleCell_Standalone.upf.ppp[0].ppp txPk:vector(packetBytes) ETV
attr interpolationmode none
attr recordingmode vector(packetBytes)
attr source packetSentToLower
attr title "packets transmitted, packetBytes"
vector 119 SingleCell_Standalone.iUpf.ppp[0].ppp rxPkOk:vector(packetBytes) ETV
attr interpolationmode none
attr recordingmode vector(packetBytes)
attr source rxPkOk
attr title "packets received OK, packetBytes"
vector 120 SingleCell_Standalone.iUpf.ppp[0].ppp passedUpPk:vector(packetBytes) ETV
attr interpolationmode none
attr recordingmode vector(packetBytes)
attr source packetSentToUpper
attr title "packets passed to higher layer, packetBytes"
vector 121 SingleCell_Standalone.iUpf.ppp[1].queue incomingPacketLengths:vector ETV
attr interpolationmode none
attr recordingmode vector
attr source packetLength(packetPushStarted)
attr title "incoming packet lengths"
attr unit b
vector 122 SingleCell_Standalone.iUpf.ppp[1].queue queueingTime:vector ETV
attr interpolationmode none
attr recordingmode vector
attr source queueingTime(packetPulled)
attr title "queueing times"
attr unit s
vector 123 SingleCell_Standalone.iUpf.ppp[1].queue outgoingPacketLengths:vector ETV
attr interpolationmode none
attr recordingmode vector
attr source packetLength(packetPulled)
attr title "outgoing packet lengths"
attr unit b
vector 124 SingleCell_Standalone.iUpf.ppp[1].ppp rcvdPkFromHl:vector(packetBytes) ETV
attr interpolationmode none
attr recordingmode vector(packetBytes)
attr source packetReceivedFromUpper
attr title "packets received from higher layer, packetBytes"
vector 125 SingleCell_Standalone.iUpf.ppp[1].ppp transmissionState:vector ETV
attr interpolationmode sample-hold
attr recordingmode vector
attr source transmissionStateChanged
attr title "tx state"
vector 126 SingleCell_Standalone.iUpf.ppp[1].ppp txPk:vector(packetBytes) ETV
attr interpolationmode none
attr recordingmode vector(packetBytes)
attr source packetSentToLower
attr title "packets transmitted, packetBytes"
vector 127 SingleCell_Standalone.gnb.pppIf.ppp rxPkOk:vector(packetBytes) ETV
attr interpolationmode none
attr recordingmode vector(packetBytes)
attr source rxPkOk
attr title "packets received OK, packetBytes"
vector 128 SingleCell_Standalone.gnb.pppIf.ppp passedUpPk:vector(packetBytes) ETV
attr interpolationmode none
attr recordingmode vector(packetBytes)
attr source packetSentToUpper
attr title "packets passed to higher layer, packetBytes"
vector 129 SingleCell_Standalone.gnb.udp packetReceived:vector(packetBytes) ETV
attr interpolationmode none
attr recordingmode vector(packetBytes)
attr source packetReceived
attr title "packets received, packetBytes"
vector 130 SingleCell_Standalone.gnb.cellularNic.pdcpRrc receivedPacketFromUpperLayer:vector(packetBytes) ETV
attr interpolationmode none
attr recordingmode vector(packetBytes)
attr source receivedPacketFromUpperLayer
vector 131 SingleCell_Standalone.gnb.cellularNic.pdcpRrc sentPacketToLowerLayer:vector(packetBytes) ETV
attr interpolationmode none
attr recordingmode vector(packetBytes)
attr source sentPacketToLowerLayer
vector 132 SingleCell_Standalone.gnb.cellularNic.rlc.um receivedPacketFromUpperLayer:vector(packetBytes) ETV
attr interpolationmode none
attr recordingmode vector(packetBytes)
attr source receivedPacketFromUpperLayer
vector 133 SingleCell_Standalone.bgCell[0].bgTrafficGenerator.bgUE[6].generator bgAverageCqiDl:vector ETV
attr recordingmode vector
attr source bgAverageCqiDl
attr title "Average DL CQI for background UEs"
attr unit ""
vector 134 SingleCell_Standalone.bgCell[0].bgTrafficGenerator.bgUE[6].generator bgHarqErrorRateDl:vector ETV
attr recordingmode vector
attr source bgHarqErrorRateDl
attr title "Average DL HARQ error rate for background UEs"
attr unit ""
vector 135 SingleCell_Standalone.ue[5].cellularNic.nrMac sentPacketToLowerLayer:vector(packetBytes) ETV
attr interpolationmode none
attr recordingmode vector(packetBytes)
attr source sentPacketToLowerLayer
vector 136 SingleCell_Standalone.ue[5].cellularNic.nrMac sentPacketToUpperLayer:vector(packetBytes) ETV
attr interpolationmode none
attr recordingmode vector(packetBytes)
attr source sentPacketToUpperLayer
vector 137 SingleCell_Standalone.ue[5].cellularNic.nrRlc.um receivedPacketFromLowerLayer:vector(packetBytes) ETV
attr interpolationmode none
attr recordingmode vector(packetBytes)
attr source receivedPacketFromLowerLayer
vector 138 SingleCell_Standalone.ue[5].cellularNic.nrRlc.um rlcPduThroughputDl:vector ETV
attr recordingmode vector
attr source rlcPduThroughputDl
attr title "Throughput at the rlc layer DL"
attr unit Bps
vector 139 SingleCell_Standalone.ue[5].cellularNic.nrRlc.um rlcPduDelayDl:vector ETV
attr recordingmode vector
attr source rlcPduDelayDl
attr title "Delay at the rlc layer UL"
attr unit s
vector 140 SingleCell_Standalone.ue[5].cellularNic.nrRlc.um rlcPduPacketLossDl:vector ETV
attr recordingmode vector
attr source rlcPduPacketLossDl
attr title "rlc Packet Loss"
attr unit ""
vector 141 SingleCell_Standalone.ue[8].cellularNic.nrRlc.um rlcThroughputDl:vector ETV
attr recordingmode vector
attr source rlcThroughputDl
attr title "Throughput at the rlc layer DL"
attr unit Bps
vector 142 SingleCell_Standalone.ue[8].cellularNic.nrRlc.um rlcPacketLossDl:vector ETV
attr recordingmode vector
attr source rlcPacketLossDl
attr title "rlc Packet Loss"
attr unit ""
vector 143 SingleCell_Standalone.ue[8].cellularNic.nrRlc.um rlcPacketLossTotal:vector ETV
attr recordingmode vector
attr source rlcPacketLossTotal
attr title "rlc Packet Loss"
attr unit ""
vector 144 SingleCell_Standalone.ue[8].cellularNic.nrRlc.um rlcDelayDl:vector ETV
attr recordingmode vector
attr source rlcDelayDl
attr title "Delay at the rlc layer DL"
attr unit s
vector 145 SingleCell_Standalone.ue[8].cellularNic.nrRlc.um sentPacketToUpperLayer:vector(packetBytes) ETV
attr interpolationmode none
attr recordingmode vector(packetBytes)
attr source sentPacketToUpperLayer
vector 146 SingleCell_Standalone.ue[8].cellularNic.pdcpRrc receivedPacketFromLowerLayer:vector(packetBytes) ETV
attr interpolationmode none
attr recordingmode vector(packetBytes)
attr source receivedPacketFromLowerLayer
vector 147 SingleCell_Standalone.ue[8].cellularNic.pdcpRrc sentPacketToUpperLayer:vector(packetBytes) ETV
attr interpolationmode none
attr recordingmode vector(packetBytes)
attr source sentPacketToUpperLayer
vector 148 SingleCell_Standalone.ue[8].udp packetReceived:vector(packetBytes) ETV
attr interpolationmode none
attr recordingmode vector(packetBytes)
attr source packetReceived
attr title "packets received, packetBytes"
vector 149 SingleCell_Standalone.ue[8].app[0] cbrReceivedBytes:vector ETV
attr recordingmode vector
attr source cbrReceivedBytesSignal
attr title "Bytes received at the application level"
attr unit Bps
vector 150 SingleCell_Standalone.ue[8].app[0] cbrFrameDelay:vector ETV
attr recordingmode vector
attr source cbrFrameDelaySignal
attr title "Cbr Frame Delay"
attr unit s
vector 151 SingleCell_Standalone.ue[8].app[0] cbrRcvdPkt:vector ETV
attr recordingmode vector
attr source cbrRcvdPkt
attr title "Received packet ID"
attr unit ""
vector 152 SingleCell_Standalone.ue[2].cellularNic.nrPhy averageCqiDl:vector ETV
attr recordingmode vector
attr source averageCqiDl
attr title "Average Cqi reported in DL"
attr unit cqi
vector 153 SingleCell_Standalone.ue[2].cellularNic.nrChannelModel[0] distance:vector ETV
attr recordingmode vector
attr source distance
attr title "distance between UE and serving base station"
attr unit meters
vector 154 SingleCell_Standalone.ue[2].cellularNic.nrChannelModel[0] rcvdSinrDl:vector ETV
attr recordingmode vector
attr source rcvdSinrDl
attr title "SINR measured at packet reception, DL"
attr unit dB
vector 155 SingleCell_Standalone.ue[2].cellularNic.nrMac receivedPacketFromLowerLayer:vector(packetBytes) ETV
attr interpolationmode none
attr recordingmode vector(packetBytes)
attr source receivedPacketFromLowerLayer
vector 156 SingleCell_Standalone.bgCell[0].bgTrafficGenerator.bgUE[0].generator bgMeasuredSinrDl:vector ETV
attr recordingmode vector
attr source bgMeasuredSinrDl
attr title "Average DL SINR for background UEs"
attr unit ""
vector 157 SingleCell_Standalone.bgCell[0].bgTrafficGenerator.bgUE[1].generator bgMeasuredSinrDl:vector ETV
attr recordingmode vector
attr source bgMeasuredSinrDl
attr title "Average DL SINR for background UEs"
attr unit ""
vector 158 SingleCell_Standalone.bgCell[0].bgTrafficGenerator.bgUE[2].generator bgMeasuredSinrDl:vector ETV
attr recordingmode vector
attr source bgMeasuredSinrDl
attr title "Average DL SINR for background UEs"
attr unit ""
vector 159 SingleCell_Standalone.bgCell[0].bgTrafficGenerator.bgUE[3].generator bgMeasuredSinrDl:vector ETV
attr recordingmode vector
attr source bgMeasuredSinrDl
attr title "Average DL SINR for background UEs"
attr unit ""
vector 160 SingleCell_Standalone.bgCell[0].bgTrafficGenerator.bgUE[4].generator bgMeasuredSinrDl:vector ETV
attr recordingmode vector
attr source bgMeasuredSinrDl
attr title "Average DL SINR for background UEs"
attr unit ""
vector 161 SingleCell_Standalone.bgCell[0].bgTrafficGenerator.bgUE[5].generator bgMeasuredSinrDl:vector ETV
attr recordingmode vector
attr source bgMeasuredSinrDl
attr title "Average DL SINR for background UEs"
attr unit ""
vector 162 SingleCell_Standalone.bgCell[0].bgTrafficGenerator.bgUE[6].generator bgMeasuredSinrDl:vector ETV
attr recordingmode vector
attr source bgMeasuredSinrDl
attr title "Average DL SINR for background UEs"
attr unit ""
vector 163 SingleCell_Standalone.bgCell[0].bgTrafficGenerator.bgUE[7].generator bgMeasuredSinrDl:vector ETV
attr recordingmode vector
attr source bgMeasuredSinrDl
attr title "Average DL SINR for background UEs"
attr unit ""
vector 164 SingleCell_Standalone.bgCell[0].bgTrafficGenerator.bgUE[8].generator bgMeasuredSinrDl:vector ETV
attr recordingmode vector
attr source bgMeasuredSinrDl
attr title "Average DL SINR for background UEs"
attr unit ""
vector 165 SingleCell_Standalone.bgCell[0].bgTrafficGenerator.bgUE[9].generator bgMeasuredSinrDl:vector ETV
attr recordingmode vector
attr source bgMeasuredSinrDl
attr title "Average DL SINR for background UEs"
attr unit ""
vector 166 SingleCell_Standalone.ue[7].cellularNic.nrMac sentPacketToLowerLayer:vector(packetBytes) ETV
attr interpolationmode none
attr recordingmode vector(packetBytes)
attr source sentPacketToLowerLayer
vector 167 SingleCell_Standalone.ue[7].cellularNic.nrMac sentPacketToUpperLayer:vector(packetBytes) ETV
attr interpolationmode none
attr recordingmode vector(packetBytes)
attr source sentPacketToUpperLayer
vector 168 SingleCell_Standalone.ue[7].cellularNic.nrRlc.um receivedPacketFromLowerLayer:vector(packetBytes) ETV
attr interpolationmode none
attr recordingmode vector(packetBytes)
attr source receivedPacketFromLowerLayer
vector 169 SingleCell_Standalone.ue[7].cellularNic.nrRlc.um rlcPduThroughputDl:vector ETV
attr recordingmode vector
attr source rlcPduThroughputDl
attr title "Throughput at the rlc layer DL"
attr unit Bps
vector 170 SingleCell_Standalone.ue[7].cellularNic.nrRlc.um rlcPduDelayDl:vector ETV
attr recordingmode vector
attr source rlcPduDelayDl
attr title "Delay at the rlc layer UL"
attr unit s
vector 171 SingleCell_Standalone.ue[7].cellularNic.nrRlc.um rlcPduPacketLossDl:vector ETV
attr recordingmode vector
attr source rlcPduPacketLossDl
attr title "rlc Packet Loss"
attr unit ""
vector 172 SingleCell_Standalone.ue[5].cellularNic.nrMac harqErrorRate_1st_Dl:vector ETV
attr recordingmode vector
attr source harqErrorRate_1st_Dl
attr title "Harq Error Rate Dl (1st tx)"
attr unit ""
vector 173 SingleCell_Standalone.ue[5].cellularNic.nrMac harqErrorRateDl:vector ETV
attr recordingmode vector
attr source harqErrorRateDl
attr title "Harq Error Rate Dl"
attr unit ""
vector 174 SingleCell_Standalone.ue[5].cellularNic.nrMac harqTxAttemptsDl:vector ETV
attr recordingmode vector
attr source harqTxAttemptsDl
attr title "Harq Tx Attempts Dl"
attr unit ""
vector 175 SingleCell_Standalone.ue[4].cellularNic.nrPhy averageCqiDl:vector ETV
attr recordingmode vector
attr source averageCqiDl
attr title "Average Cqi reported in DL"
attr unit cqi
vector 176 SingleCell_Standalone.ue[4].cellularNic.nrChannelModel[0] distance:vector ETV
attr recordingmode vector
attr source distance
attr title "distance between UE and serving base station"
attr unit meters
vector 177 SingleCell_Standalone.ue[4].cellularNic.nrChannelModel[0] rcvdSinrDl:vector ETV
attr recordingmode vector
attr source rcvdSinrDl
attr title "SINR measured at packet reception, DL"
attr unit dB
vector 178 SingleCell_Standalone.ue[4].cellularNic.nrMac receivedPacketFromLowerLayer:vector(packetBytes) ETV
attr interpolationmode none
attr recordingmode vector(packetBytes)
attr source receivedPacketFromLowerLayer
vector 179 SingleCell_Standalone.ue[7].cellularNic.nrRlc.um rlcThroughputDl:vector ETV
attr recordingmode vector
attr source rlcThroughputDl
attr title "Throughput at the rlc layer DL"
attr unit Bps
vector 180 SingleCell_Standalone.ue[7].cellularNic.nrRlc.um rlcPacketLossDl:vector ETV
attr recordingmode vector
attr source rlcPacketLossDl
attr title "rlc Packet Loss"
attr unit ""
vector 181 SingleCell_Standalone.ue[7].cellularNic.nrRlc.um rlcPacketLossTotal:vector ETV
attr recordingmode vector
attr source rlcPacketLossTotal
attr title "rlc Packet Loss"
attr unit ""
vector 182 SingleCell_Standalone.ue[7].cellularNic.nrRlc.um rlcDelayDl:vector ETV
attr recordingmode vector
attr source rlcDelayDl
attr title "Delay at the rlc layer DL"
attr unit s
vector 183 SingleCell_Standalone.ue[7].cellularNic.nrRlc.um sentPacketToUpperLayer:vector(packetBytes) ETV
attr interpolationmode none
attr recordingmode vector(packetBytes)
attr source sentPacketToUpperLayer
vector 184 SingleCell_Standalone.ue[7].cellularNic.pdcpRrc receivedPacketFromLowerLayer:vector(packetBytes) ETV
attr interpolationmode none
attr recordingmode vector(packetBytes)
attr source receivedPacketFromLowerLayer
vector 185 SingleCell_Standalone.ue[7].cellularNic.pdcpRrc sentPacketToUpperLayer:vector(packetBytes) ETV
attr interpolationmode none
attr recordingmode vector(packetBytes)
attr source sentPacketToUpperLayer
vector 186 SingleCell_Standalone.ue[7].udp packetReceived:vector(packetBytes) ETV
attr interpolationmode none
attr recordingmode vector(packetBytes)
attr source packetReceived
attr title "packets received, packetBytes"
vector 187 SingleCell_Standalone.ue[7].app[0] cbrReceivedBytes:vector ETV
attr recordingmode vector
attr source cbrReceivedBytesSignal
attr title "Bytes received at the application level"
attr unit Bps
vector 188 SingleCell_Standalone.ue[7].app[0] cbrFrameDelay:vector ETV
attr recordingmode vector
attr source cbrFrameDelaySignal
attr title "Cbr Frame Delay"
attr unit s
vector 189 SingleCell_Standalone.ue[7].app[0] cbrRcvdPkt:vector ETV
attr recordingmode vector
attr source cbrRcvdPkt
attr title "Received packet ID"
attr unit ""
vector 190 SingleCell_Standalone.ue[7].cellularNic.nrMac harqErrorRate_1st_Dl:vector ETV
attr recordingmode vector
attr source harqErrorRate_1st_Dl
attr title "Harq Error Rate Dl (1st tx)"
attr unit ""
vector 191 SingleCell_Standalone.ue[7].cellularNic.nrMac harqErrorRateDl:vector ETV
attr recordingmode vector
attr source harqErrorRateDl
attr title "Harq Error Rate Dl"
attr unit ""
vector 192 SingleCell_Standalone.ue[7].cellularNic.nrMac harqTxAttemptsDl:vector ETV
attr recordingmode vector
attr source harqTxAttemptsDl
attr title "Harq Tx Attempts Dl"
attr unit ""
vector 193 SingleCell_Standalone.bgCell[0].bgTrafficGenerator.bgUE[5].generator bgAverageCqiDl:vector ETV
attr recordingmode vector
attr source bgAverageCqiDl
attr title "Average DL CQI for background UEs"
attr unit ""
vector 194 SingleCell_Standalone.bgCell[0].bgTrafficGenerator.bgUE[5].generator bgHarqErrorRateDl:vector ETV
attr recordingmode vector
attr source bgHarqErrorRateDl
attr title "Average DL HARQ error rate for background UEs"
attr unit ""
vector 195 SingleCell_Standalone.ue[2].cellularNic.nrMac sentPacketToLowerLayer:vector(packetBytes) ETV
attr interpolationmode none
attr recordingmode vector(packetBytes)
attr source sentPacketToLowerLayer
vector 196 SingleCell_Standalone.ue[2].cellularNic.nrMac sentPacketToUpperLayer:vector(packetBytes) ETV
attr interpolationmode none
attr recordingmode vector(packetBytes)
attr source sentPacketToUpperLayer
vector 197 SingleCell_Standalone.ue[2].cellularNic.nrRlc.um receivedPacketFromLowerLayer:vector(packetBytes) ETV
attr interpolationmode none
attr recordingmode vector(packetBytes)
attr source receivedPacketFromLowerLayer
vector 198 SingleCell_Standalone.ue[2].cellularNic.nrRlc.um rlcPduThroughputDl:vector ETV
attr recordingmode vector
attr source rlcPduThroughputDl
attr title "Throughput at the rlc layer DL"
attr unit Bps
vector 199 SingleCell_Standalone.ue[2].cellularNic.nrRlc.um rlcPduDelayDl:vector ETV
attr recordingmode vector
attr source rlcPduDelayDl
attr title "Delay at the rlc layer UL"
attr unit s
vector 200 SingleCell_Standalone.ue[2].cellularNic.nrRlc.um rlcPduPacketLossDl:vector ETV
attr recordingmode vector
attr source rlcPduPacketLossDl
attr title "rlc Packet Loss"
attr unit ""
vector 201 SingleCell_Standalone.ue[0].cellularNic.nrChannelModel[0] measuredSinrUl:vector ETV
attr recordingmode vector
attr source measuredSinrUl
attr title "SINR measured at feedback computation, UL"
attr unit dB
vector 202 SingleCell_Standalone.ue[0].cellularNic.nrChannelModel[0] measuredSinrDl:vector ETV
attr recordingmode vector
attr source measuredSinrDl
attr title "SINR measured at feedback computation, DL"
attr unit dB
vector 203 SingleCell_Standalone.ue[1].cellularNic.nrChannelModel[0] measuredSinrUl:vector ETV
attr recordingmode vector
attr source measuredSinrUl
attr title "SINR measured at feedback computation, UL"
attr unit dB
vector 204 SingleCell_Standalone.ue[1].cellularNic.nrChannelModel[0] measuredSinrDl:vector ETV
attr recordingmode vector
attr source measuredSinrDl
attr title "SINR measured at feedback computation, DL"
attr unit dB
vector 205 SingleCell_Standalone.ue[2].cellularNic.nrChannelModel[0] measuredSinrUl:vector ETV
attr recordingmode vector
attr source measuredSinrUl
attr title "SINR measured at feedback computation, UL"
attr unit dB
vector 206 SingleCell_Standalone.ue[2].cellularNic.nrChannelModel[0] measuredSinrDl:vector ETV
attr recordingmode vector
attr source measuredSinrDl
attr title "SINR measured at feedback computation, DL"
attr unit dB
vector 207 SingleCell_Standalone.ue[3].cellularNic.nrChannelModel[0] measuredSinrUl:vector ETV
attr recordingmode vector
attr source measuredSinrUl
attr title "SINR measured at feedback computation, UL"
attr unit dB
vector 208 SingleCell_Standalone.ue[3].cellularNic.nrChannelModel[0] measuredSinrDl:vector ETV
attr recordingmode vector
attr source measuredSinrDl
attr title "SINR measured at feedback computation, DL"
attr unit dB
vector 209 SingleCell_Standalone.ue[4].cellularNic.nrChannelModel[0] measuredSinrUl:vector ETV
attr recordingmode vector
attr source measuredSinrUl
attr title "SINR measured at feedback computation, UL"
attr unit dB
vector 210 SingleCell_Standalone.ue[4].cellularNic.nrChannelModel[0] measuredSinrDl:vector ETV
attr recordingmode vector
attr source measuredSinrDl
attr title "SINR measured at feedback computation, DL"
attr unit dB
vector 211 SingleCell_Standalone.ue[5].cellularNic.nrChannelModel[0] measuredSinrUl:vector ETV
attr recordingmode vector
attr source measuredSinrUl
attr title "SINR measured at feedback computation, UL"
attr unit dB
vector 212 SingleCell_Standalone.ue[5].cellularNic.nrChannelModel[0] measuredSinrDl:vector ETV
attr recordingmode vector
attr source measuredSinrDl
attr title "SINR measured at feedback computation, DL"
attr unit dB
vector 213 SingleCell_Standalone.ue[6].cellularNic.nrChannelModel[0] measuredSinrUl:vector ETV
attr recordingmode vector
attr source measuredSinrUl
attr title "SINR measured at feedback computation, UL"
attr unit dB
vector 214 SingleCell_Standalone.ue[6].cellularNic.nrChannelModel[0] measuredSinrDl:vector ETV
attr recordingmode vector
attr source measuredSinrDl
attr title "SINR measured at feedback computation, DL"
attr unit dB
vector 215 SingleCell_Standalone.ue[7].cellularNic.nrChannelModel[0] measuredSinrUl:vector ETV
attr recordingmode vector
attr source measuredSinrUl
attr title "SINR measured at feedback computation, UL"
attr unit dB
vector 216 SingleCell_Standalone.ue[7].cellularNic.nrChannelModel[0] measuredSinrDl:vector ETV
attr recordingmode vector
attr source measuredSinrDl
attr title "SINR measured at feedback computation, DL"
attr unit dB
vector 217 SingleCell_Standalone.ue[8].cellularNic.nrChannelModel[0] measuredSinrUl:vector ETV
attr recordingmode vector
attr source measuredSinrUl
attr title "SINR measured at feedback computation, UL"
attr unit dB
vector 218 SingleCell_Standalone.ue[8].cellularNic.nrChannelModel[0] measuredSinrDl:vector ETV
attr recordingmode vector
attr source measuredSinrDl
attr title "SINR measured at feedback computation, DL"
attr unit dB
vector 219 SingleCell_Standalone.ue[9].cellularNic.nrChannelModel[0] measuredSinrUl:vector ETV
attr recordingmode vector
attr source measuredSinrUl
attr title "SINR measured at feedback computation, UL"
attr unit dB
vector 220 SingleCell_Standalone.ue[9].cellularNic.nrChannelModel[0] measuredSinrDl:vector ETV
attr recordingmode vector
attr source measuredSinrDl
attr title "SINR measured at feedback computation, DL"
attr unit dB
vector 221 SingleCell_Standalone.ue[0].cellularNic.nrPhy averageCqiDl:vector ETV
attr recordingmode vector
attr source averageCqiDl
attr title "Average Cqi reported in DL"
attr unit cqi
vector 222 SingleCell_Standalone.ue[0].cellularNic.nrChannelModel[0] distance:vector ETV
attr recordingmode vector
attr source distance
attr title "distance between UE and serving base station"
attr unit meters
vector 223 SingleCell_Standalone.ue[0].cellularNic.nrChannelModel[0] rcvdSinrDl:vector ETV
attr recordingmode vector
attr source rcvdSinrDl
attr title "SINR measured at packet reception, DL"
attr unit dB
vector 224 SingleCell_Standalone.ue[0].cellularNic.nrMac receivedPacketFromLowerLayer:vector(packetBytes) ETV
attr interpolationmode none
attr recordingmode vector(packetBytes)
attr source receivedPacketFromLowerLayer
vector 225 SingleCell_Standalone.ue[2].cellularNic.nrRlc.um rlcThroughputDl:vector ETV
attr recordingmode vector
attr source rlcThroughputDl
attr title "Throughput at the rlc layer DL"
attr unit Bps
vector 226 SingleCell_Standalone.ue[2].cellularNic.nrRlc.um rlcPacketLossDl:vector ETV
attr recordingmode vector
attr source rlcPacketLossDl
attr title "rlc Packet Loss"
attr unit ""
vector 227 SingleCell_Standalone.ue[2].cellularNic.nrRlc.um rlcPacketLossTotal:vector ETV
attr recordingmode vector
attr source rlcPacketLossTotal
attr title "rlc Packet Loss"
attr unit ""
vector 228 SingleCell_Standalone.ue[2].cellularNic.nrRlc.um rlcDelayDl:vector ETV
attr recordingmode vector
attr source rlcDelayDl
attr title "Delay at the rlc layer DL"
attr unit s
vector 229 SingleCell_Standalone.ue[2].cellularNic.nrRlc.um sentPacketToUpperLayer:vector(packetBytes) ETV
attr interpolationmode none
attr recordingmode vector(packetBytes)
attr source sentPacketToUpperLayer
vector 230 SingleCell_Standalone.ue[2].cellularNic.pdcpRrc receivedPacketFromLowerLayer:vector(packetBytes) ETV
attr interpolationmode none
attr recordingmode vector(packetBytes)
attr source receivedPacketFromLowerLayer
vector 231 SingleCell_Standalone.ue[2].cellularNic.pdcpRrc sentPacketToUpperLayer:vector(packetBytes) ETV
attr interpolationmode none
attr recordingmode vector(packetBytes)
attr source sentPacketToUpperLayer
vector 232 SingleCell_Standalone.ue[2].udp packetReceived:vector(packetBytes) ETV
attr interpolationmode none
attr recordingmode vector(packetBytes)
attr source packetReceived
attr title "packets received, packetBytes"
vector 233 SingleCell_Standalone.ue[2].app[0] cbrReceivedBytes:vector ETV
attr recordingmode vector
attr source cbrReceivedBytesSignal
attr title "Bytes received at the application level"
attr unit Bps
vector 234 SingleCell_Standalone.ue[2].app[0] cbrFrameDelay:vector ETV
attr recordingmode vector
attr source cbrFrameDelaySignal
attr title "Cbr Frame Delay"
attr unit s
vector 235 SingleCell_Standalone.ue[2].app[0] cbrRcvdPkt:vector ETV
attr recordingmode vector
attr source cbrRcvdPkt
attr title "Received packet ID"
attr unit ""
vector 236 SingleCell_Standalone.ue[4].cellularNic.nrMac sentPacketToLowerLayer:vector(packetBytes) ETV
attr interpolationmode none
attr recordingmode vector(packetBytes)
attr source sentPacketToLowerLayer
vector 237 SingleCell_Standalone.ue[4].cellularNic.nrMac sentPacketToUpperLayer:vector(packetBytes) ETV
attr interpolationmode none
attr recordingmode vector(packetBytes)
attr source sentPacketToUpperLayer
vector 238 SingleCell_Standalone.ue[4].cellularNic.nrRlc.um receivedPacketFromLowerLayer:vector(packetBytes) ETV
attr interpolationmode none
attr recordingmode vector(packetBytes)
attr source receivedPacketFromLowerLayer
vector 239 SingleCell_Standalone.ue[4].cellularNic.nrRlc.um rlcPduThroughputDl:vector ETV
attr recordingmode vector
attr source rlcPduThroughputDl
attr title "Throughput at the rlc layer DL"
attr unit Bps
vector 240 SingleCell_Standalone.ue[4].cellularNic.nrRlc.um rlcPduDelayDl:vector ETV
attr recordingmode vector
attr source rlcPduDelayDl
attr title "Delay at the rlc layer UL"
attr unit s
vector 241 SingleCell_Standalone.ue[4].cellularNic.nrRlc.um rlcPduPacketLossDl:vector ETV
attr recordingmode vector
attr source rlcPduPacketLossDl
attr title "rlc Packet Loss"
attr unit ""
vector 242 SingleCell_Standalone.ue[5].cellularNic.nrRlc.um rlcThroughputDl:vector ETV
attr recordingmode vector
attr source rlcThroughputDl
attr title "Throughput at the rlc layer DL"
attr unit Bps
vector 243 SingleCell_Standalone.ue[5].cellularNic.nrRlc.um rlcPacketLossDl:vector ETV
attr recordingmode vector
attr source rlcPacketLossDl
attr title "rlc Packet Loss"
attr unit ""
vector 244 SingleCell_Standalone.ue[5].cellularNic.nrRlc.um rlcPacketLossTotal:vector ETV
attr recordingmode vector
attr source rlcPacketLossTotal
attr title "rlc Packet Loss"
attr unit ""
vector 245 SingleCell_Standalone.ue[5].cellularNic.nrRlc.um rlcDelayDl:vector ETV
attr recordingmode vector
attr source rlcDelayDl
attr title "Delay at the rlc layer DL"
attr unit s
vector 246 SingleCell_Standalone.ue[5].cellularNic.nrRlc.um sentPacketToUpperLayer:vector(packetBytes) ETV
attr interpolationmode none
attr recordingmode vector(packetBytes)
attr source sentPacketToUpperLayer
vector 247 SingleCell_Standalone.ue[5].cellularNic.pdcpRrc receivedPacketFromLowerLayer:vector(packetBytes) ETV
attr interpolationmode none
attr recordingmode vector(packetBytes)
attr source receivedPacketFromLowerLayer
vector 248 SingleCell_Standalone.ue[5].cellularNic.pdcpRrc sentPacketToUpperLayer:vector(packetBytes) ETV
attr interpolationmode none
attr recordingmode vector(packetBytes)
attr source sentPacketToUpperLayer
vector 249 SingleCell_Standalone.ue[5].udp packetReceived:vector(packetBytes) ETV
attr interpolationmode none
attr recordingmode vector(packetBytes)
attr source packetReceived
attr title "packets received, packetBytes"
vector 250 SingleCell_Standalone.ue[5].app[0] cbrReceivedBytes:vector ETV
attr recordingmode vector
attr source cbrReceivedBytesSignal
attr title "Bytes received at the application level"
attr unit Bps
vector 251 SingleCell_Standalone.ue[5].app[0] cbrFrameDelay:vector ETV
attr recordingmode vector
attr source cbrFrameDelaySignal
attr title "Cbr Frame Delay"
attr unit s
vector 252 SingleCell_Standalone.ue[5].app[0] cbrRcvdPkt:vector ETV
attr recordingmode vector
attr source cbrRcvdPkt
attr title "Received packet ID"
attr unit ""
vector 253 SingleCell_Standalone.ue[2].cellularNic.nrMac harqErrorRate_1st_Dl:vector ETV
attr recordingmode vector
attr source harqErrorRate_1st_Dl
attr title "Harq Error Rate Dl (1st tx)"
attr unit ""
vector 254 SingleCell_Standalone.ue[2].cellularNic.nrMac harqErrorRateDl:vector ETV
attr recordingmode vector
attr source harqErrorRateDl
attr title "Harq Error Rate Dl"
attr unit ""
vector 255 SingleCell_Standalone.ue[2].cellularNic.nrMac harqTxAttemptsDl:vector ETV
attr recordingmode vector
attr source harqTxAttemptsDl
attr title "Harq Tx Attempts Dl"
attr unit ""
vector 256 SingleCell_Standalone.ue[9].cellularNic.nrPhy averageCqiDl:vector ETV
attr recordingmode vector
attr source averageCqiDl
attr title "Average Cqi reported in DL"
attr unit cqi
vector 257 SingleCell_Standalone.ue[9].cellularNic.nrChannelModel[0] distance:vector ETV
attr recordingmode vector
attr source distance
attr title "distance between UE and serving base station"
attr unit meters
vector 258 SingleCell_Standalone.ue[9].cellularNic.nrChannelModel[0] rcvdSinrDl:vector ETV
attr recordingmode vector
attr source rcvdSinrDl
attr title "SINR measured at packet reception, DL"
attr unit dB
vector 259 SingleCell_Standalone.ue[9].cellularNic.nrMac receivedPacketFromLowerLayer:vector(packetBytes) ETV
attr interpolationmode none
attr recordingmode vector(packetBytes)
attr source receivedPacketFromLowerLayer
vector 260 SingleCell_Standalone.ue[4].cellularNic.nrRlc.um rlcThroughputDl:vector ETV
attr recordingmode vector
attr source rlcThroughputDl
attr title "Throughput at the rlc layer DL"
attr unit Bps
vector 261 SingleCell_Standalone.ue[4].cellularNic.nrRlc.um rlcPacketLossDl:vector ETV
attr recordingmode vector
attr source rlcPacketLossDl
attr title "rlc Packet Loss"
attr unit ""
vector 262 SingleCell_Standalone.ue[4].cellularNic.nrRlc.um rlcPacketLossTotal:vector ETV
attr recordingmode vector
attr source rlcPacketLossTotal
attr title "rlc Packet Loss"
attr unit ""
vector 263 SingleCell_Standalone.ue[4].cellularNic.nrRlc.um rlcDelayDl:vector ETV
attr recordingmode vector
attr source rlcDelayDl
attr title "Delay at the rlc layer DL"
attr unit s
vector 264 SingleCell_Standalone.ue[4].cellularNic.nrRlc.um sentPacketToUpperLayer:vector(packetBytes) ETV
attr interpolationmode none
attr recordingmode vector(packetBytes)
attr source sentPacketToUpperLayer
vector 265 SingleCell_Standalone.ue[4].cellularNic.pdcpRrc receivedPacketFromLowerLayer:vector(packetBytes) ETV
attr interpolationmode none
attr recordingmode vector(packetBytes)
attr source receivedPacketFromLowerLayer
vector 266 SingleCell_Standalone.ue[4].cellularNic.pdcpRrc sentPacketToUpperLayer:vector(packetBytes) ETV
attr interpolationmode none
attr recordingmode vector(packetBytes)
attr source sentPacketToUpperLayer
vector 267 SingleCell_Standalone.ue[4].udp packetReceived:vector(packetBytes) ETV
attr interpolationmode none
attr recordingmode vector(packetBytes)
attr source packetReceived
attr title "packets received, packetBytes"
vector 268 SingleCell_Standalone.ue[4].app[0] cbrReceivedBytes:vector ETV
attr recordingmode vector
attr source cbrReceivedBytesSignal
attr title "Bytes received at the application level"
attr unit Bps
vector 269 SingleCell_Standalone.ue[4].app[0] cbrFrameDelay:vector ETV
attr recordingmode vector
attr source cbrFrameDelaySignal
attr title "Cbr Frame Delay"
attr unit s
vector 270 SingleCell_Standalone.ue[4].app[0] cbrRcvdPkt:vector ETV
attr recordingmode vector
attr source cbrRcvdPkt
attr title "Received packet ID"
attr unit ""
vector 271 SingleCell_Standalone.ue[4].cellularNic.nrMac harqErrorRate_1st_Dl:vector ETV
attr recordingmode vector
attr source harqErrorRate_1st_Dl
attr title "Harq Error Rate Dl (1st tx)"
attr unit ""
vector 272 SingleCell_Standalone.ue[4].cellularNic.nrMac harqErrorRateDl:vector ETV
attr recordingmode vector
attr source harqErrorRateDl
attr title "Harq Error Rate Dl"
attr unit ""
vector 273 SingleCell_Standalone.ue[4].cellularNic.nrMac harqTxAttemptsDl:vector ETV
attr recordingmode vector
attr source harqTxAttemptsDl
attr title "Harq Tx Attempts Dl"
attr unit ""
vector 274 SingleCell_Standalone.ue[8].cellularNic.nrPhy averageCqiDl:vector ETV
attr recordingmode vector
attr source averageCqiDl
attr title "Average Cqi reported in DL"
attr unit cqi
vector 275 SingleCell_Standalone.ue[8].cellularNic.nrChannelModel[0] distance:vector ETV
attr recordingmode vector
attr source distance
attr title "distance between UE and serving base station"
attr unit meters
vector 276 SingleCell_Standalone.ue[8].cellularNic.nrChannelModel[0] rcvdSinrDl:vector ETV
attr recordingmode vector
attr source rcvdSinrDl
attr title "SINR measured at packet reception, DL"
attr unit dB
vector 277 SingleCell_Standalone.ue[8].cellularNic.nrMac receivedPacketFromLowerLayer:vector(packetBytes) ETV
attr interpolationmode none
attr recordingmode vector(packetBytes)
attr source receivedPacketFromLowerLayer
vector 278 SingleCell_Standalone.ue[0].cellularNic.nrMac sentPacketToLowerLayer:vector(packetBytes) ETV
attr interpolationmode none
attr recordingmode vector(packetBytes)
attr source sentPacketToLowerLayer
vector 279 SingleCell_Standalone.ue[0].cellularNic.nrMac sentPacketToUpperLayer:vector(packetBytes) ETV
attr interpolationmode none
attr recordingmode vector(packetBytes)
attr source sentPacketToUpperLayer
vector 280 SingleCell_Standalone.ue[0].cellularNic.nrRlc.um receivedPacketFromLowerLayer:vector(packetBytes) ETV
attr interpolationmode none
attr recordingmode vector(packetBytes)
attr source receivedPacketFromLowerLayer
vector 281 SingleCell_Standalone.ue[0].cellularNic.nrRlc.um rlcPduThroughputDl:vector ETV
attr recordingmode vector
attr source rlcPduThroughputDl
attr title "Throughput at the rlc layer DL"
attr unit Bps
vector 282 SingleCell_Standalone.ue[0].cellularNic.nrRlc.um rlcPduDelayDl:vector ETV
attr recordingmode vector
attr source rlcPduDelayDl
attr title "Delay at the rlc layer UL"
attr unit s
vector 283 SingleCell_Standalone.ue[0].cellularNic.nrRlc.um rlcPduPacketLossDl:vector ETV
attr recordingmode vector
attr source rlcPduPacketLossDl
attr title "rlc Packet Loss"
attr unit ""
vector 284 SingleCell_Standalone.ue[9].cellularNic.nrMac sentPacketToLowerLayer:vector(packetBytes) ETV
attr interpolationmode none
attr recordingmode vector(packetBytes)
attr source sentPacketToLowerLayer
vector 285 SingleCell_Standalone.ue[9].cellularNic.nrMac sentPacketToUpperLayer:vector(packetBytes) ETV
attr interpolationmode none
attr recordingmode vector(packetBytes)
attr source sentPacketToUpperLayer
vector 286 SingleCell_Standalone.ue[9].cellularNic.nrRlc.um receivedPacketFromLowerLayer:vector(packetBytes) ETV
attr interpolationmode none
attr recordingmode vector(packetBytes)
attr source receivedPacketFromLowerLayer
vector 287 SingleCell_Standalone.ue[9].cellularNic.nrRlc.um rlcPduThroughputDl:vector ETV
attr recordingmode vector
attr source rlcPduThroughputDl
attr title "Throughput at the rlc layer DL"
attr unit Bps
vector 288 SingleCell_Standalone.ue[9].cellularNic.nrRlc.um rlcPduDelayDl:vector ETV
attr recordingmode vector
attr source rlcPduDelayDl
attr title "Delay at the rlc layer UL"
attr unit s
vector 289 SingleCell_Standalone.ue[9].cellularNic.nrRlc.um rlcPduPacketLossDl:vector ETV
attr recordingmode vector
attr source rlcPduPacketLossDl
attr title "rlc Packet Loss"
attr unit ""
vector 290 SingleCell_Standalone.ue[0].cellularNic.nrMac harqErrorRate_1st_Dl:vector ETV
attr recordingmode vector
attr source harqErrorRate_1st_Dl
attr title "Harq Error Rate Dl (1st tx)"
attr unit ""
vector 291 SingleCell_Standalone.ue[0].cellularNic.nrMac harqErrorRateDl:vector ETV
attr recordingmode vector
attr source harqErrorRateDl
attr title "Harq Error Rate Dl"
attr unit ""
vector 292 SingleCell_Standalone.ue[0].cellularNic.nrMac harqTxAttemptsDl:vector ETV
attr recordingmode vector
attr source harqTxAttemptsDl
attr title "Harq Tx Attempts Dl"
attr unit ""
vector 293 SingleCell_Standalone.ue[0].cellularNic.nrRlc.um rlcThroughputDl:vector ETV
attr recordingmode vector
attr source rlcThroughputDl
attr title "Throughput at the rlc layer DL"
attr unit Bps
vector 294 SingleCell_Standalone.ue[0].cellularNic.nrRlc.um rlcPacketLossDl:vector ETV
attr recordingmode vector
attr source rlcPacketLossDl
attr title "rlc Packet Loss"
attr unit ""
vector 295 SingleCell_Standalone.ue[0].cellularNic.nrRlc.um rlcPacketLossTotal:vector ETV
attr recordingmode vector
attr source rlcPacketLossTotal
attr title "rlc Packet Loss"
attr unit ""
vector 296 SingleCell_Standalone.ue[0].cellularNic.nrRlc.um rlcDelayDl:vector ETV
attr recordingmode vector
attr source rlcDelayDl
attr title "Delay at the rlc layer DL"
attr unit s
vector 297 SingleCell_Standalone.ue[0].cellularNic.nrRlc.um sentPacketToUpperLayer:vector(packetBytes) ETV
attr interpolationmode none
attr recordingmode vector(packetBytes)
attr source sentPacketToUpperLayer
vector 298 SingleCell_Standalone.ue[0].cellularNic.pdcpRrc receivedPacketFromLowerLayer:vector(packetBytes) ETV
attr interpolationmode none
attr recordingmode vector(packetBytes)
attr source receivedPacketFromLowerLayer
vector 299 SingleCell_Standalone.ue[0].cellularNic.pdcpRrc sentPacketToUpperLayer:vector(packetBytes) ETV
attr interpolationmode none
attr recordingmode vector(packetBytes)
attr source sentPacketToUpperLayer
vector 300 SingleCell_Standalone.ue[0].udp packetReceived:vector(packetBytes) ETV
attr interpolationmode none
attr recordingmode vector(packetBytes)
attr source packetReceived
attr title "packets received, packetBytes"
vector 301 SingleCell_Standalone.ue[0].app[0] cbrReceivedBytes:vector ETV
attr recordingmode vector
attr source cbrReceivedBytesSignal
attr title "Bytes received at the application level"
attr unit Bps
vector 302 SingleCell_Standalone.ue[0].app[0] cbrFrameDelay:vector ETV
attr recordingmode vector
attr source cbrFrameDelaySignal
attr title "Cbr Frame Delay"
attr unit s
vector 303 SingleCell_Standalone.ue[0].app[0] cbrRcvdPkt:vector ETV
attr recordingmode vector
attr source cbrRcvdPkt
attr title "Received packet ID"
attr unit ""
vector 304 SingleCell_Standalone.ue[9].cellularNic.nrRlc.um rlcThroughputDl:vector ETV
attr recordingmode vector
attr source rlcThroughputDl
attr title "Throughput at the rlc layer DL"
attr unit Bps
vector 305 SingleCell_Standalone.ue[9].cellularNic.nrRlc.um rlcPacketLossDl:vector ETV
attr recordingmode vector
attr source rlcPacketLossDl
attr title "rlc Packet Loss"
attr unit ""
vector 306 SingleCell_Standalone.ue[9].cellularNic.nrRlc.um rlcPacketLossTotal:vector ETV
attr recordingmode vector
attr source rlcPacketLossTotal
attr title "rlc Packet Loss"
attr unit ""
vector 307 SingleCell_Standalone.ue[9].cellularNic.nrRlc.um rlcDelayDl:vector ETV
attr recordingmode vector
attr source rlcDelayDl
attr title "Delay at the rlc layer DL"
attr unit s
vector 308 SingleCell_Standalone.ue[9].cellularNic.nrRlc.um sentPacketToUpperLayer:vector(packetBytes) ETV
attr interpolationmode none
attr recordingmode vector(packetBytes)
attr source sentPacketToUpperLayer
vector 309 SingleCell_Standalone.ue[9].cellularNic.pdcpRrc receivedPacketFromLowerLayer:vector(packetBytes) ETV
attr interpolationmode none
attr recordingmode vector(packetBytes)
attr source receivedPacketFromLowerLayer
vector 310 SingleCell_Standalone.ue[9].cellularNic.pdcpRrc sentPacketToUpperLayer:vector(packetBytes) ETV
attr interpolationmode none
attr recordingmode vector(packetBytes)
attr source sentPacketToUpperLayer
vector 311 SingleCell_Standalone.ue[9].udp packetReceived:vector(packetBytes) ETV
attr interpolationmode none
attr recordingmode vector(packetBytes)
attr source packetReceived
attr title "packets received, packetBytes"
vector 312 SingleCell_Standalone.ue[9].app[0] cbrReceivedBytes:vector ETV
attr recordingmode vector
attr source cbrReceivedBytesSignal
attr title "Bytes received at the application level"
attr unit Bps
vector 313 SingleCell_Standalone.ue[9].app[0] cbrFrameDelay:vector ETV
attr recordingmode vector
attr source cbrFrameDelaySignal
attr title "Cbr Frame Delay"
attr unit s
vector 314 SingleCell_Standalone.ue[9].app[0] cbrRcvdPkt:vector ETV
attr recordingmode vector
attr source cbrRcvdPkt
attr title "Received packet ID"
attr unit ""
vector 315 SingleCell_Standalone.bgCell[0].bgTrafficGenerator.bgUE[2].generator bgAverageCqiDl:vector ETV
attr recordingmode vector
attr source bgAverageCqiDl
attr title "Average DL CQI for background UEs"
attr unit ""
vector 316 SingleCell_Standalone.bgCell[0].bgTrafficGenerator.bgUE[2].generator bgHarqErrorRateDl:vector ETV
attr recordingmode vector
attr source bgHarqErrorRateDl
attr title "Average DL HARQ error rate for background UEs"
attr unit ""
vector 317 SingleCell_Standalone.bgCell[0].bgTrafficGenerator.bgUE[7].generator bgAverageCqiDl:vector ETV
attr recordingmode vector
attr source bgAverageCqiDl
attr title "Average DL CQI for background UEs"
attr unit ""
vector 318 SingleCell_Standalone.bgCell[0].bgTrafficGenerator.bgUE[7].generator bgHarqErrorRateDl:vector ETV
attr recordingmode vector
attr source bgHarqErrorRateDl
attr title "Average DL HARQ error rate for background UEs"
attr unit ""
vector 319 SingleCell_Standalone.bgCell[0].bgTrafficGenerator.bgUE[9].generator bgAverageCqiDl:vector ETV
attr recordingmode vector
attr source bgAverageCqiDl
attr title "Average DL CQI for background UEs"
attr unit ""
vector 320 SingleCell_Standalone.bgCell[0].bgTrafficGenerator.bgUE[9].generator bgHarqErrorRateDl:vector ETV
attr recordingmode vector
attr source bgHarqErrorRateDl
attr title "Average DL HARQ error rate for background UEs"
attr unit ""
vector 321 SingleCell_Standalone.ue[7].cellularNic.nrMac harqErrorRate_2nd_Dl:vector ETV
attr recordingmode vector
attr source harqErrorRate_2nd_Dl
attr title "Harq Error Rate Dl (2nd tx)"
attr unit ""
vector 322 SingleCell_Standalone.bgCell[0].bgTrafficGenerator.bgUE[8].generator bgAverageCqiDl:vector ETV
attr recordingmode vector
attr source bgAverageCqiDl
attr title "Average DL CQI for background UEs"
attr unit ""
vector 323 SingleCell_Standalone.bgCell[0].bgTrafficGenerator.bgUE[8].generator bgHarqErrorRateDl:vector ETV
attr recordingmode vector
attr source bgHarqErrorRateDl
attr title "Average DL HARQ error rate for background UEs"
attr unit ""
vector 324 SingleCell_Standalone.bgCell[0].bgTrafficGenerator.bgUE[3].generator bgAverageCqiDl:vector ETV
attr recordingmode vector
attr source bgAverageCqiDl
attr title "Average DL CQI for background UEs"
attr unit ""
vector 325 SingleCell_Standalone.bgCell[0].bgTrafficGenerator.bgUE[3].generator bgHarqErrorRateDl:vector ETV
attr recordingmode vector
attr source bgHarqErrorRateDl
attr title "Average DL HARQ error rate for background UEs"
attr unit ""
vector 326 SingleCell_Standalone.bgCell[0].bgTrafficGenerator.bgUE[1].generator bgAverageCqiDl:vector ETV
attr recordingmode vector
attr source bgAverageCqiDl
attr title "Average DL CQI for background UEs"
attr unit ""
vector 327 SingleCell_Standalone.bgCell[0].bgTrafficGenerator.bgUE[1].generator bgHarqErrorRateDl:vector ETV
attr recordingmode vector
attr source bgHarqErrorRateDl
attr title "Average DL HARQ error rate for background UEs"
attr unit ""
vector 328 SingleCell_Standalone.bgCell[0].bgTrafficGenerator.bgUE[4].generator bgAverageCqiDl:vector ETV
attr recordingmode vector
attr source bgAverageCqiDl
attr title "Average DL CQI for background UEs"
attr unit ""
vector 329 SingleCell_Standalone.bgCell[0].bgTrafficGenerator.bgUE[4].generator bgHarqErrorRateDl:vector ETV
attr recordingmode vector
attr source bgHarqErrorRateDl
attr title "Average DL HARQ error rate for background UEs"
attr unit ""
vector 330 SingleCell_Standalone.server.ppp[0].queue incomingDataRate:vector ETV
attr interpolationmode linear
attr recordingmode vector
attr source throughput(packetPushStarted)
attr title "incoming datarate"
attr unit bps
vector 331 SingleCell_Standalone.server.ppp[0].queue outgoingDataRate:vector ETV
attr interpolationmode linear
attr recordingmode vector
attr source throughput(packetPulled)
attr title "outgoing datarate"
attr unit bps
vector 332 SingleCell_Standalone.router.ppp[1].queue incomingDataRate:vector ETV
attr interpolationmode linear
attr recordingmode vector
attr source throughput(packetPushStarted)
attr title "incoming datarate"
attr unit bps
vector 333 SingleCell_Standalone.router.ppp[1].queue outgoingDataRate:vector ETV
attr interpolationmode linear
attr recordingmode vector
attr source throughput(packetPulled)
attr title "outgoing datarate"
attr unit bps
vector 334 SingleCell_Standalone.upf.ppp[0].queue incomingDataRate:vector ETV
attr interpolationmode linear
attr recordingmode vector
attr source throughput(packetPushStarted)
attr title "incoming datarate"
attr unit bps
vector 335 SingleCell_Standalone.upf.ppp[0].queue outgoingDataRate:vector ETV
attr interpolationmode linear
attr recordingmode vector
attr source throughput(packetPulled)
attr title "outgoing datarate"
attr unit bps
vector 336 SingleCell_Standalone.iUpf.ppp[1].queue incomingDataRate:vector ETV
attr interpolationmode linear
attr recordingmode vector
attr source throughput(packetPushStarted)
attr title "incoming datarate"
attr unit bps
vector 337 SingleCell_Standalone.iUpf.ppp[1].queue outgoingDataRate:vector ETV
attr interpolationmode linear
attr recordingmode vector
attr source throughput(packetPulled)
attr title "outgoing datarate"
attr unit bps
0	79287 132858 0 500846 1 5.980926239686 4987 0 0 0 0
1	212145 132858 0 500846 1 5.980926239686 4987 0 0 0 0
2	345003 9 0 0 1 1 1 0 0 0 0
3	345012 9 0 0 1 1 1 0 0 0 0
4	345021 9 0 0 1 1 1 0 0 0 0
5	345030 45 0 0 1 1 5 0 0 0 0
6	345075 45 0 0 1 1 5 0 0 0 0
7	345120 132858 0 500850 1 5.980927117686 4987 0 0 0 0
8	477978 132858 0 500850 1 5.980927117686 4987 0 0 0 0
9	610836 132858 0 500857 1 5.980927995686 4987 0 0 0 0
10	743694 137845 0 500857 1 5.980927995686 4987 0 0 0 0
11	881539 50 0 0 1 1 5 0 0 0 0
12	881589 50 0 0 1 1 5 0 0 0 0
13	881639 10 0 0 1 1 1 0 0 0 0
14	881649 10 0 0 1 1 1 0 0 0 0
15	881659 10 0 0 1 1 1 0 0 0 0
16	881669 50 0 0 1 1 5 0 0 0 0
17	881719 50 0 0 1 1 5 0 0 0 0
18	881769 137845 0 500861 1 5.980928902486 4987 0 0 0 0
19	1019614 137845 0 500861 1 5.980928902486 4987 0 0 0 0
20	1157459 50 0 0 1 1 5 0 0 0 0
21	1157509 50 0 0 1 1 5 0 0 0 0
22	1157559 10 0 0 1 1 1 0 0 0 0
23	1157569 10 0 0 1 1 1 0 0 0 0
24	1157579 10 0 0 1 1 1 0 0 0 0
25	1157589 50 0 0 1 1 5 0 0 0 0
26	1157639 50 0 0 1 1 5 0 0 0 0
27	1157689 50 0 0 1 1 5 0 0 0 0
28	1157739 50 0 0 1 1 5 0 0 0 0
29	1157789 151644 0 500865 1 5.980929809286 4983 0 4982 12412653 41230695715
30	1309433 10 0 0 1 1 1 0 0 0 0
31	1309443 10 0 0 1 1 1 0 0 0 0
32	1309453 10334 0 500711 1 5.979 499 0 498 124251 41292749
33	1319787 10 0 0 1 1 1 0 0 0 0
34	1319797 10 0 0 1 1 1 0 0 0 0
35	1319807 10 0 0 1 1 1 0 0 0 0
36	1319817 10 0 0 1 1 1 0 0 0 0
37	1319827 10 0 0 1 1 1 0 0 0 0
38	1319837 10339 0 500413 1 5.975 499 0 498 124251 41292749
39	1330176 10 0 0 1 1 1 0 0 0 0
40	1330186 10 0 0 1 1 1 0 0 0 0
41	1330196 10 0 0 1 1 1 0 0 0 0
42	1330206 10 0 0 1 1 1 0 0 0 0
43	1330216 10 0 0 1 1 1 0 0 0 0
44	1330226 7153 0 500425 1 5.975 347 0 346 60031 13867161
45	1337379 10 0 0 1 1 1 0 0 0 0
46	1337389 10 0 0 1 1 1 0 0 0 0
47	1337399 10339 0 500435 1 5.975 499 0 498 124251 41292749
48	1347738 10 0 0 1 1 1 0 0 0 0
49	1347748 10 0 0 1 1 1 0 0 0 0
50	1347758 10 0 0 1 1 1 0 0 0 0
51	1347768 10 0 0 1 1 1 0 0 0 0
52	1347778 10 0 0 1 1 1 0 0 0 0
53	1347788 10339 0 500247 1 5.973 499 0 498 124251 41292749
54	1358127 10 0 0 1 1 1 0 0 0 0
55	1358137 10 0 0 1 1 1 0 0 0 0
56	1358147 10339 0 500085 1 5.971 499 0 498 124251 41292749
57	1368486 10 0 0 1 1 1 0 0 0 0
58	1368496 10 0 0 1 1 1 0 0 0 0
59	1368506 10331 0 500659 1 5.978 499 0 498 124251 41292749
60	1378837 10 0 0 1 1 1 0 0 0 0
61	1378847 10 0 0 1 1 1 0 0 0 0
[...]
106	18466794 127370 500993 838433 5.982343574302 9.9990442373 4018 8224 8224 33044032 271754119168
107	18594164 127370 500993 838433 5.982343574302 9.9990442373 4018 1028 1028 4130504 4246158112
108	18721534 230632 500993 838434 5.982343574302 9.9990450653 8036 0 1 4018 4018
109	18952166 127370 500993 838433 5.982343574302 9.9990442373 4018 1035 1035 4158630 4304182050
110	19079536 127370 500995 838435 5.982344452302 9.9990451153 4018 1035 1035 4158630 4304182050
111	19206906 127370 500995 838435 5.982344452302 9.9990451153 4018 1028 1028 4130504 4246158112
112	19334276 127370 500998 838438 5.982344452302 9.9990451153 4018 1044 1044 4194792 4379362848
113	19461646 127370 501000 838440 5.982344452302 9.9990451153 4018 8512 8512 34201216 291120750592
114	19589016 115316 501000 838440 5.982344452302 9.9990451153 4018 0 0 0 0
115	19704332 127370 501000 838440 5.982344452302 9.9990451153 4018 8512 8512 34201216 291120750592
116	19831702 127370 501000 838440 5.982344452302 9.9990451153 4018 1064 1064 4275152 4548761728
117	19959072 230632 501000 838441 5.982344452302 9.9990459721 8036 0 1 4018 4018
118	20189704 127370 501000 838440 5.982344452302 9.9990451153 4018 1071 1071 4303278 4608810738
119	20317074 127370 501002 838442 5.982345359102 9.9990460221 4018 1071 1071 4303278 4608810738
120	20444444 127370 501002 838442 5.982345359102 9.9990460221 4018 1064 1064 4275152 4548761728
121	20571814 127370 501004 838444 5.982345359102 9.9990460221 4018 8512 8512 34201216 291120750592
122	20699184 115316 501004 838444 5.982345359102 9.9990460221 4018 0 0 0 0
123	20814500 127370 501004 838444 5.982345359102 9.9990460221 4018 8512 8512 34201216 291120750592
124	20941870 127370 501004 838444 5.982345359102 9.9990460221 4018 1064 1064 4275152 4548761728
125	21069240 230632 501004 838445 5.982345359102 9.9990468789 8036 0 1 4018 4018
126	21299872 127370 501004 838444 5.982345359102 9.9990460221 4018 1071 1071 4303278 4608810738
127	21427242 127370 501006 838446 5.982346265902 9.9990469289 4018 1071 1071 4303278 4608810738
128	21554612 127370 501006 838446 5.982346265902 9.9990469289 4018 1064 1064 4275152 4548761728
129	21681982 127370 501008 838448 5.982346265902 9.9990469289 4018 1044 1044 4194792 4379362848
130	21809352 127370 501011 838451 5.982346265902 9.9990469289 4018 1028 1028 4130504 4246158112
131	21936722 127370 501011 838451 5.982346265902 9.9990469289 4018 1029 1029 4134522 4254423138
132	22064092 127370 501012 838452 5.982346265902 9.9990469289 4018 1029 1029 4134522 4254423138
133	22191462 52411 500945 838152 5.982 9.996 2624 4 6 12774 64764
134	22243873 52411 500945 838152 5.982 9.996 2624 0 1 269 269
135	22296284 24200 500897 838107 5.981 9.995 1210 1 1 1210 1210
136	22320484 26616 500897 838107 5.981 9.995 1210 59 490 416078 162975946
137	22347100 26616 500900 838110 5.981 9.995 1210 59 490 416078 162975946
138	22373716 24200 500900 838110 5.981 9.995 1210 0 0 0 0
139	22397916 29040 500900 838110 5.981 9.995 1210 0.004 0.004 4.8399999999999 0.01936
140	22426956 24200 500900 838110 5.981 9.995 1210 0 0 0 0
141	22451156 13615 500909 837766 5.981 9.991 402 113989.98998999 122918.0887372 47270030.297053 5560911426327.1
142	22464771 8040 500909 837766 5.981 9.991 402 0 0 0 0
143	22472811 8040 500909 837766 5.981 9.991 402 0 0 0 0
144	22480851 13266 500909 837766 5.981 9.991 402 0.006794709633 0.008794709633 2.739473272466 0.018684283110835
145	22494117 9246 500909 837766 5.981 9.991 402 1029 1029 413658 425654082
146	22503363 9246 500910 837767 5.981 9.991 402 1029 1029 413658 425654082
147	22512609 9246 500910 837767 5.981 9.991 402 1028 1028 413256 424827168
148	22521855 9246 500913 837770 5.981 9.991 402 1008 1008 405216 408457728
149	22531101 9246 500914 837771 5.981 9.991 402 1000 1000 402000 402000000
150	22540347 13266 500914 837771 5.981 9.991 402 0.006798279233 0.008798279233 2.740908251666 0.018703845880723
151	22553613 8844 500914 837771 5.981 9.991 402 594 995 319389 259168261
152	22562457 16884 500923 837837 5.981 9.992 804 15 15 12060 180900
153	22579341 27336 500923 837837 5.981 9.992 804 153.28823632368 153.28823632368 123243.74200424 18891815.849761
154	22606677 26532 500923 837837 5.981 9.992 804 42.1902696039 42.924656078676 34216.200124396 1456263.0693864
155	22633209 17688 500924 837838 5.981 9.992 804 167 870 416874 315485178
156	22650897 22628 500925 838132 5.982 9.996 670 7.4767136039882 13.063963329937 6517.9555406782 68440.625755625
157	22673525 23298 500926 838133 5.982 9.996 670 -42.695109625343 -34.241854223871 -26323.344490582 1045725.191154
158	22696823 23298 500927 838134 5.982 9.996 670 -15.323280876562 -7.8640990801661 -8252.6191022694 110619.06940132
159	22720121 23298 500928 838135 5.982 9.996 670 -43.547270243146 -33.338024304317 -26420.174659424 1058630.341671
160	22743419 23298 500929 838136 5.982 9.996 670 -28.192115185335 -18.976425603475 -16400.480987072 415146.42019401
161	22766717 23298 500930 838137 5.982 9.996 670 -5.3993317688826 0.29541528572754 -2079.9705804066 11684.676371767
162	22790015 23028 500931 838138 5.982 9.996 670 -0.5055369530287 5.6170259563742 1314.3822270095 8620.9918048879
163	22813043 23298 500932 838139 5.982 9.996 670 -56.383334623744 -44.186131898808 -34483.589462176 1798784.0174056
164	22836341 23298 500933 838140 5.982 9.996 670 -38.227988211383 -29.611083470138 -23286.187821491 821292.02443023
165	22859639 23298 500934 838141 5.982 9.996 670 -8.7542804035214 -4.3257238197761 -4669.6575927481 35707.179525936
166	22882937 16240 500966 837926 5.982 9.993 812 1 1 812 812
167	22899177 17688 500966 837926 5.982 9.993 804 165 868 415266 313820898
168	22916865 17688 500969 837929 5.982 9.993 804 165 868 415266 313820898
169	22934553 16080 500969 837929 5.982 9.993 804 0 0 0 0
170	22950633 19288 500969 837929 5.982 9.993 804 0.004 0.01 3.264 0.013536
171	22969921 16080 500969 837929 5.982 9.993 804 0 0 0 0
172	22986001 24200 500977 838193 5.982 9.996 1210 0 0 0 0
173	23010201 24200 500977 838193 5.982 9.996 1210 0 0 0 0
174	23034401 24200 500977 838193 5.982 9.996 1210 1 1 1210 1210
175	23058601 16716 500982 837943 5.982 9.993 796 13 13 10348 134524
176	23075317 27064 500982 837943 5.982 9.993 796 518.69218046553 518.69218046553 412878.97565057 214157096.14857
177	23102381 27064 500982 837943 5.982 9.993 796 24.589970022157 25.358606715189 19879.533541463 496594.77297002
178	23129445 17512 500983 837944 5.982 9.993 796 246 492 293724 120426840
179	23146957 13625 501081 837929 5.983 9.993 402 113850.21683532 122662.25165563 47194485.622826 5543092229885
180	23160582 8040 501081 837929 5.983 9.993 402 0 0 0 0
181	23168622 8040 501081 837929 5.983 9.993 402 0 0 0 0
182	23176662 13266 501081 837929 5.983 9.993 402 0.005950775168 0.011950775168 2.436211617536 0.015003181705018
183	23189928 9246 501081 837929 5.983 9.993 402 1029 1029 413658 425654082
184	23199174 9246 501082 837930 5.983 9.993 402 1029 1029 413658 425654082
185	23208420 9246 501082 837930 5.983 9.993 402 1028 1028 413256 424827168
186	23217666 9246 501085 837933 5.983 9.993 402 1008 1008 405216 408457728
187	23226912 9246 501086 837934 5.983 9.993 402 1000 1000 402000 402000000
188	23236158 13266 501086 837934 5.983 9.993 402 0.005954344768 0.011954344768 2.437646596736 0.0150205794293
189	23249424 8844 501086 837934 5.983 9.993 402 593 994 318987 258529885
190	23258268 16080 501094 837979 5.983 9.994 804 0 1 8 8
191	23274348 16236 501094 837979 5.983 9.994 812 0 1 8 8
192	23290584 16076 501094 837979 5.983 9.994 804 1 2 812 828
193	23306660 4758 501471 837902 5.988 9.993 238 2 4 682 2188
194	23311418 4758 501471 837902 5.988 9.993 238 0 1 22 22
195	23316176 16080 501108 838090 5.984 9.995 804 1 1 804 804
196	23332256 17688 501108 838090 5.984 9.995 804 165 868 415266 313820898
197	23349944 17688 501111 838093 5.984 9.995 804 165 868 415266 313820898
198	23367632 16080 501111 838093 5.984 9.995 804 0 0 0 0
199	23383712 19296 501111 838093 5.984 9.995 804 0.004 0.004 3.216 0.012864
200	23403008 16080 501111 838093 5.984 9.995 804 0 0 0 0
201	23419088 22631 501128 838340 5.984 9.998 670 14.739774410297 14.739774410297 9875.6488548991 145564.83627652
202	23441719 22631 501128 838340 5.984 9.998 670 37.875879815362 37.875879815362 25376.839476293 961170.12209781
203	23464350 22631 501130 838342 5.984 9.998 670 19.571810449091 19.571810449091 13113.113000891 256647.36205094
204	23486981 22631 501130 838342 5.984 9.998 670 5.7942381921387 5.7942381921387 3882.1395887328 22494.041472249
205	23509612 22631 501132 838344 5.984 9.998 670 33.678414276019 33.678414276019 22564.537564933 759937.84405859
206	23532243 21291 501132 838344 5.984 9.998 670 42.1902696039 42.1902696039 28267.480634613 1192612.6289973
207	23553534 22631 501134 838346 5.984 9.998 670 9.4950447916954 9.4950447916954 6361.6800104359 60404.436649523
208	23576165 23301 501134 838346 5.984 9.998 670 -9.7925901476591 -9.7925901476591 -6561.0353989316 64249.53060602
209	23599466 22631 501136 838348 5.984 9.998 670 3.9879485979354 3.9879485979354 2671.9255606167 10655.50179325
210	23622097 22631 501136 838348 5.984 9.998 670 21.243743888743 21.243743888743 14233.308405458 302368.75845503
211	23644728 22631 501138 838350 5.984 9.998 670 26.656188134126 26.656188134126 17859.646049864 476070.08511409
212	23667359 22631 501138 838350 5.984 9.998 670 20.947145334711 20.947145334711 14034.587374256 293984.54144124
213	23689990 22631 501140 838352 5.984 9.998 670 9.7518269059092 9.7518269059092 6533.7240269592 63715.745761885
214	23712621 22631 501140 838352 5.984 9.998 670 13.973484852328 13.973484852328 9362.2348510595 130823.04687522
215	23735252 22631 501142 838354 5.984 9.998 670 37.142333330526 37.142333330526 24885.363331452 924300.45990806
216	23757883 22631 501142 838354 5.984 9.998 670 40.302258533206 40.302258533206 27002.513217248 1088262.2687278
217	23780514 22631 501144 838356 5.984 9.998 670 11.317003569821 11.317003569821 7582.3923917803 85809.961765565
218	23803145 22631 501144 838356 5.984 9.998 670 27.649878213961 27.649878213961 18525.418403354 512225.56271541
219	23825776 22631 501146 838358 5.984 9.998 670 35.491656297099 35.491656297099 23779.409719056 843970.63669662
220	23848407 22631 501146 838358 5.984 9.998 670 48.924189073277 48.924189073277 32779.206679096 1603696.1052401
221	23871038 16884 501302 838194 5.985 9.996 804 15 15 12060 180900
222	23887922 27336 501302 838194 5.985 9.996 804 466.35243521483 466.35243521483 374947.35791273 174857613.43997
223	23915258 27140 501302 838194 5.985 9.996 804 35.193333416498 40.45502793397 30556.783114448 1163483.3202875
224	23942398 17688 501303 838195 5.985 9.996 804 167 870 416874 288177618
225	23960086 13559 501265 838093 5.985 9.995 402 114053.69649805 123025.8776329 47303126.969479 5568723200919.9
226	23973645 8040 501265 838093 5.985 9.995 402 0 0 0 0
227	23981685 8040 501265 838093 5.985 9.995 402 0 0 0 0
228	23989725 12462 501265 838093 5.985 9.995 402 0.0059530711 0.0059530711 2.3931345822 0.014246500319705
229	24002187 9246 501265 838093 5.985 9.995 402 1029 1029 413658 425654082
230	24011433 9246 501266 838094 5.985 9.995 402 1029 1029 413658 425654082
231	24020679 9246 501266 838094 5.985 9.995 402 1028 1028 413256 424827168
232	24029925 9246 501269 838097 5.985 9.995 402 1008 1008 405216 408457728
233	24039171 9246 501270 838098 5.985 9.995 402 1000 1000 402000 402000000
234	24048417 12462 501270 838098 5.985 9.995 402 0.0059566407 0.0059566407 2.3945695614 0.014263590508416
235	24060879 8844 501270 838098 5.985 9.995 402 595 996 319791 259807441
236	24069723 15920 501274 838167 5.985 9.996 796 1 1 796 796
237	24085643 17512 501274 838167 5.985 9.996 796 244 490 292132 119255128
238	24103155 17512 501277 838170 5.985 9.996 796 244 490 292132 119255128
239	24120667 15920 501277 838170 5.985 9.996 796 0 0 0 0
240	24136587 19104 501277 838170 5.985 9.996 796 0.004 0.004 3.184 0.012736
241	24155691 15920 501277 838170 5.985 9.996 796 0 0 0 0
242	24171611 13569 501282 838110 5.985 9.995 402 114053.69649805 123025.8776329 47302982.564268 5568689019172.7
243	24185180 8040 501282 838110 5.985 9.995 402 0 0 0 0
244	24193220 8040 501282 838110 5.985 9.995 402 0 0 0 0
245	24201260 13266 501282 838110 5.985 9.995 402 0.010343343998 0.011343343998 4.166024287196 0.043181369058475
246	24214526 9246 501282 838110 5.985 9.995 402 1029 1029 413658 425654082
247	24223772 9246 501283 838111 5.985 9.995 402 1029 1029 413658 425654082
248	24233018 9246 501283 838111 5.985 9.995 402 1028 1028 413256 424827168
249	24242264 9246 501286 838114 5.985 9.995 402 1008 1008 405216 408457728
250	24251510 9246 501287 838115 5.985 9.995 402 1000 1000 402000 402000000
251	24260756 13266 501287 838115 5.985 9.995 402 0.010346913598 0.011346913598 4.167459266396 0.043211116261368
252	24274022 8844 501287 838115 5.985 9.995 402 595 996 319791 259807441
253	24282866 16080 501301 838189 5.985 9.996 804 0 0 0 0
254	24298946 16080 501301 838189 5.985 9.996 804 0 0 0 0
255	24315026 16080 501301 838189 5.985 9.996 804 1 1 804 804
256	24331106 16884 501152 838198 5.984 9.996 804 15 15 12060 180900
257	24347990 27336 501152 838198 5.984 9.996 804 102.56274267645 102.56274267645 82460.445111862 8457369.4129932
258	24375326 27336 501152 838198 5.984 9.996 804 42.390256783711 53.525115068349 40522.722995976 2047184.4339636
259	24402662 17688 501153 838199 5.984 9.996 804 167 870 416874 287938078
260	24420350 9579 501322 838170 5.986 9.996 283 79568.356545961 85475.380304243 23181285.698312 1899668710419.7
261	24429929 5660 501322 838170 5.986 9.996 283 0 0 0 0
262	24435589 5660 501322 838170 5.986 9.996 283 0 0 0 0
263	24441249 9339 501322 838170 5.986 9.996 283 1.825070190714 3.015070190714 686.30086397206 1698.9501715011
264	24450588 6509 501322 838170 5.986 9.996 283 1029 1029 291207 299652003
265	24457097 6509 501323 838171 5.986 9.996 283 1029 1029 291207 299652003
266	24463606 6509 501323 838171 5.986 9.996 283 1028 1028 290924 299069872
267	24470115 6509 501326 838174 5.986 9.996 283 1008 1008 285264 287546112
268	24476624 6509 501327 838175 5.986 9.996 283 1000 1000 283000 283000000
269	24483133 9339 501327 838175 5.986 9.996 283 1.825073760314 3.015073760314 686.30187416886 1698.9550711438
270	24492472 6226 501327 838175 5.986 9.996 283 413 695 156782 88745970
271	24498698 15920 501343 838248 5.986 9.997 796 0 0 0 0
272	24514618 15920 501343 838248 5.986 9.997 796 0 0 0 0
273	24530538 15920 501343 838248 5.986 9.997 796 1 1 796 796
274	24546458 25238 501348 838364 5.986 9.998 1202 14 14 16828 235592
275	24571696 40864 501348 838364 5.986 9.998 1202 671.07492315121 671.07492315121 806632.05762774 541310546.08382
276	24612560 40860 501348 838364 5.986 9.998 1202 22.874077466542 33.892240226632 34348.271843206 1005711.2452944
277	24653420 26042 501349 838365 5.986 9.998 1202 54 705 418466 233056066
278	24679462 16078 501478 838381 5.988 9.999 804 1 1 804 804
279	24695540 17686 501478 838381 5.988 9.999 804 165 868 415266 286513338
280	24713226 17686 501481 838384 5.988 9.999 804 165 868 415266 286513338
281	24730912 16078 501481 838384 5.988 9.999 804 0 0 0 0
282	24746990 19294 501481 838384 5.988 9.999 804 0.004 0.004 3.216 0.012864
283	24766284 16078 501481 838384 5.988 9.999 804 0 0 0 0
284	24782362 16077 501382 838410 5.987 9.999 804 1 1 804 804
285	24798439 17685 501382 838410 5.987 9.999 804 165 868 415266 286273798
286	24816124 17685 501385 838413 5.987 9.999 804 165 868 415266 286273798
287	24833809 16077 501385 838413 5.987 9.999 804 0 0 0 0
288	24849886 19293 501385 838413 5.987 9.999 804 0.004 0.004 3.216 0.012864
289	24869179 16077 501385 838413 5.987 9.999 804 0 0 0 0
290	24885256 15749 501575 838490 5.989 10 804 0 0 0 0
291	24901005 15749 501575 838490 5.989 10 804 0 0 0 0
292	24916754 15749 501575 838490 5.989 10 804 1 1 804 804
293	24932503 13616 501536 838384 5.989 9.999 402 113888.65429492 122720.98616957 47216227.540771 5548212118856.5
294	24946119 8038 501536 838384 5.989 9.999 402 0 0 0 0
295	24954157 8038 501536 838384 5.989 9.999 402 0 0 0 0
296	24962195 12862 501536 838384 5.989 9.999 402 0.00553569143 0.00753569143 2.51634795486 0.015835612014747
297	24975057 9244 501536 838384 5.989 9.999 402 1029 1029 413658 425654082
298	24984301 9244 501537 838385 5.989 9.999 402 1029 1029 413658 425654082
299	24993545 9244 501537 838385 5.989 9.999 402 1028 1028 413256 424827168
300	25002789 9244 501540 838388 5.989 9.999 402 1008 1008 405216 408457728
301	25012033 9244 501541 838389 5.989 9.999 402 1000 1000 402000 402000000
302	25021277 12862 501541 838389 5.989 9.999 402 0.00553926103 0.00753926103 2.51778293406 0.015853581848368
303	25034139 8842 501541 838389 5.989 9.999 402 594 995 319389 259168261
304	25042981 13619 501565 838413 5.989 9.999 402 114231.69241027 123339.74744438 47398842.704863 5591353441995
305	25056600 8037 501565 838413 5.989 9.999 402 0 0 0 0
306	25064637 8037 501565 838413 5.989 9.999 402 0 0 0 0
307	25072674 13263 501565 838413 5.989 9.999 402 0.005653734098 0.007653734098 2.564801107396 0.016449593832089
308	25085937 9243 501565 838413 5.989 9.999 402 1029 1029 413658 425654082
309	25095180 9243 501566 838414 5.989 9.999 402 1029 1029 413658 425654082
310	25104423 9243 501566 838414 5.989 9.999 402 1028 1028 413256 424827168
311	25113666 9243 501569 838417 5.989 9.999 402 1008 1008 405216 408457728
312	25122909 9243 501570 838418 5.989 9.999 402 1000 1000 402000 402000000
313	25132152 13263 501570 838418 5.989 9.999 402 0.005657303698 0.007657303698 2.566236086596 0.016467909582457
314	25145415 8841 501570 838418 5.989 9.999 402 597 998 320595 261088213
315	25154256 2940 503143 835784 6.008 9.968 147 2 3 301 623
316	25157196 2940 503143 835784 6.008 9.968 147 0 1 11 11
317	25160136 1020 515594 833265 6.156 9.938 51 2 2 102 204
318	25161156 1020 515594 833265 6.156 9.938 51 0 1 2 2
319	25162176 3980 502141 836216 5.996 9.973 199 2 4 596 1984
320	25166156 3980 502141 836216 5.996 9.973 199 0 1 14 14
321	25170136 156 563816 743473 6.73 8.869 8 0 0 0 0
322	25170292 1260 505665 837471 6.038 9.988 63 2 2 126 252
323	25171552 1260 505665 837471 6.038 9.988 63 0 1 6 6
324	25172812 2219 502210 834853 5.997 9.957 111 2 2 222 444
325	25175031 2219 502210 834853 5.997 9.957 111 0 1 15 15
326	25177250 1199 503045 825336 6.007 9.844 60 2 2 120 240
327	25178449 1199 503045 825336 6.007 9.844 60 0 1 9 9
328	25179648 1760 501353 838309 5.987 9.998 88 2 2 176 352
329	25181408 1760 501353 838309 5.987 9.998 88 0 1 6 6
330	25183168 1353 502408 838429 5.9990433593 9.9990433593 41 8224000 8224000 337184000 2.773001216e+15
331	25184521 1353 502408 838429 5.9990433593 9.9990433593 41 8224000 8224000 337184000 2.773001216e+15
332	25185874 1353 502412 838433 5.9990442373 9.9990442373 41 8224000 8224000 337184000 2.773001216e+15
333	25187227 1353 502412 838433 5.9990442373 9.9990442373 41 8224000 8224000 337184000 2.773001216e+15
334	25188580 1353 502419 838440 5.9990451153 9.9990451153 41 8512000 8512000 348992000 2.970619904e+15
335	25189933 1353 502419 838440 5.9990451153 9.9990451153 41 8512000 8512000 348992000 2.970619904e+15
336	25191286 1353 502423 838444 5.9990460221 9.9990460221 41 8512000 8512000 348992000 2.970619904e+15
337	25192639 1353 502423 838444 5.9990460221 9.9990460221 41 8512000 8512000 348992000 2.970619904e+15
338	25193992 22 838499 838499 10 10 1 100000 100000 100000 10000000000
339	25194014 22 838499 838499 10 10 1 100000 100000 100000 10000000000
340	25194036 22 838499 838499 10 10 1 100000 100000 100000 10000000000
341	25194058 22 838499 838499 10 10 1 100000 100000 100000 10000000000
342	25194080 22 838499 838499 10 10 1 100000 100000 100000 10000000000
343	25194102 22 838499 838499 10 10 1 100000 100000 100000 10000000000
344	25194124 22 838499 838499 10 10 1 100000 100000 100000 10000000000
345	25194146 22 838499 838499 10 10 1 100000 100000 100000 10000000000
346	25194168 22 838499 838499 10 10 1 100000 100000 100000 10000000000
347	25194190 22 838499 838499 10 10 1 100000 100000 100000 10000000000

