version 3
run Multiple-UEs-0-20240529-12:59:31-14196
attr configname Multiple-UEs
attr datetime 20240529-12:59:31
attr datetimef 20240529-125931
attr experiment Multiple-UEs
attr inifile omnetpp.ini
attr iterationvars $numUes=1
attr iterationvarsd numUes=1
attr iterationvarsf numUes=1-
attr measurement $numUes=1
attr network simu5g.simulations.NR.networks.SingleCell_Standalone
attr processid 14196
attr repetition 0
attr replication #0
attr resultdir results
attr runnumber 0
attr seedset 0
itervar numUes 1
config image-path ../../../images;../../../../INET4.5/images
config extends BgTraffic
config *.numUe 1
config *.ue[*].mobility.initialX uniform(0m,1000m)
config *.ue[*].mobility.initialY uniform(0m,1000m)
config *.server.numApps 1
config output-scalar-file results/Multiple-UEs/$numUes=1-0.sca
config output-vector-file results/Multiple-UEs/$numUes=1-0.vec
config extends Single-UE
config *.numBgCells 1
config *.bgCell[*].bgScheduler.isNr true
config *.bgCell[*].bgScheduler.txPower 23
config *.bgCell[*].mobility.initialX 750m
config *.bgCell[*].mobility.initialY 1000m
config *.bgCell[*].bgTrafficGenerator.numBgUes 10
config *.bgCell[*].bgTrafficGenerator.bgUE[*].mobility.initialX uniform(500m,1000m)
config *.bgCell[*].bgTrafficGenerator.bgUE[*].mobility.initialY uniform(500m,1000m)
config *.bgCell[*].bgTrafficGenerator.bgUE[*].trafficGeneratorType "\"TrafficGeneratorCbr\""
config *.bgCell[*].bgTrafficGenerator.bgUE[*].generator.startTimeDl uniform(0s,0.05s)
config *.bgCell[*].bgTrafficGenerator.bgUE[*].generator.packetSizeDl 1000B
config *.bgCell[*].bgTrafficGenerator.bgUE[*].generator.periodDl 0.01s
config *.gnb.mobility.initialX 500m
config *.gnb.mobility.initialY 500m
config *.numUe 1
config *.ue[*].mobility.initialX 500m
config *.ue[*].mobility.initialY 900m
config *.ue[*].macCellId 0
config *.ue[*].masterId 0
config *.ue[*].nrMacCellId 1
config *.ue[*].nrMasterId 1
config *.ue[*].numApps 1
config *.server.numApps 1
config *.ue[*].app[*].typename CbrReceiver
config *.ue[*].app[*].localPort 1000
config *.server.app[*].typename CbrSender
config *.server.app[*].PacketSize 1000
config *.server.app[*].sampling_time 0.01s
config *.server.app[*].destAddress "\"ue[\"+string(ancestorIndex(0))+\"]\""
config *.server.app[*].destPort 1000
config *.server.app[*].localPort 3088+ancestorIndex(0)
config *.server.app[*].startTime uniform(0.01s,0.05s)
config output-scalar-file-append false
config network simu5g.simulations.NR.networks.SingleCell_Standalone
config sim-time-limit 10s
config warmup-period 1s
config seed-set 0
config output-scalar-file results/Multiple-UEs/0.sca
config output-vector-file results/Multiple-UEs/0.vec
config **.routingRecorder.enabled false
config **.amcType "\"NRAmc\""
config **.targetBler 0.01
config **.blerShift 5
config *.configurator.config "xmldoc(\"./demo.xml\")"
config **.mobility.constraintAreaMaxX 1000m
config **.mobility.constraintAreaMaxY 1000m
config **.mobility.constraintAreaMinX 0m
config **.mobility.constraintAreaMinY 0m
config **.mobility.constraintAreaMinZ 0m
config **.mobility.constraintAreaMaxZ 0m
config **.mobility.initFromDisplayString false

vector 0 SingleCell_Standalone.server.ppp[0].queue queueLength:vector ETV
attr autoWarmupFilter false
attr interpolationmode sample-hold
attr recordingmode vector
attr source "warmup(atomic(constant0(packetPushEnded) + count(packetPushStarted) - count(packetPulled) - count(packetRemoved) - count(packetDropped)))"
attr title "queue length"
attr unit pk
vector 1 SingleCell_Standalone.server.ppp[0].queue queueBitLength:vector ETV
attr autoWarmupFilter false
attr interpolationmode sample-hold
attr recordingmode vector
attr source "warmup(atomic(constant0(packetPushEnded) + sum(packetLength(packetPushStarted)) - sum(packetLength(packetPulled)) - sum(packetLength(packetRemoved)) - sum(packetLength(packetDropped))))"
attr title "queue bit length"
attr unit b
vector 2 SingleCell_Standalone.server.udp passedUpPk:vector(count) ETV
attr interpolationmode none
attr recordingmode vector(count)
attr source packetSentToUpper
attr title "packets passed up, count"
vector 3 SingleCell_Standalone.server.udp droppedPkWrongPort:vector(count) ETV
attr interpolationmode none
attr recordingmode vector(count)
attr source packetDropReasonIsNoPortFound(packetDropped)
attr title "packets dropped (wrong port), count"
vector 4 SingleCell_Standalone.server.udp droppedPkBadChecksum:vector(count) ETV
attr interpolationmode none
attr recordingmode vector(count)
attr source packetDropReasonIsIncorrectlyReceived(packetDropped)
attr title "packets dropped (checksum error), count"
vector 5 SingleCell_Standalone.router.ppp[0].queue queueLength:vector ETV
attr autoWarmupFilter false
attr interpolationmode sample-hold
attr recordingmode vector
attr source "warmup(atomic(constant0(packetPushEnded) + count(packetPushStarted) - count(packetPulled) - count(packetRemoved) - count(packetDropped)))"
attr title "queue length"
attr unit pk
vector 6 SingleCell_Standalone.router.ppp[0].queue queueBitLength:vector ETV
attr autoWarmupFilter false
attr interpolationmode sample-hold
attr recordingmode vector
attr source "warmup(atomic(constant0(packetPushEnded) + sum(packetLength(packetPushStarted)) - sum(packetLength(packetPulled)) - sum(packetLength(packetRemoved)) - sum(packetLength(packetDropped))))"
attr title "queue bit length"
attr unit b
vector 7 SingleCell_Standalone.router.ppp[1].queue queueLength:vector ETV
attr autoWarmupFilter false
attr interpolationmode sample-hold
attr recordingmode vector
attr source "warmup(atomic(constant0(packetPushEnded) + count(packetPushStarted) - count(packetPulled) - count(packetRemoved) - count(packetDropped)))"
attr title "queue length"
attr unit pk
vector 8 SingleCell_Standalone.router.ppp[1].queue queueBitLength:vector ETV
attr autoWarmupFilter false
attr interpolationmode sample-hold
attr recordingmode vector
attr source "warmup(atomic(constant0(packetPushEnded) + sum(packetLength(packetPushStarted)) - sum(packetLength(packetPulled)) - sum(packetLength(packetRemoved)) - sum(packetLength(packetDropped))))"
attr title "queue bit length"
attr unit b
vector 9 SingleCell_Standalone.upf.ppp[0].queue queueLength:vector ETV
attr autoWarmupFilter false
attr interpolationmode sample-hold
attr recordingmode vector
attr source "warmup(atomic(constant0(packetPushEnded) + count(packetPushStarted) - count(packetPulled) - count(packetRemoved) - count(packetDropped)))"
attr title "queue length"
attr unit pk
vector 10 SingleCell_Standalone.upf.ppp[0].queue queueBitLength:vector ETV
attr autoWarmupFilter false
attr interpolationmode sample-hold
attr recordingmode vector
attr source "warmup(atomic(constant0(packetPushEnded) + sum(packetLength(packetPushStarted)) - sum(packetLength(packetPulled)) - sum(packetLength(packetRemoved)) - sum(packetLength(packetDropped))))"
attr title "queue bit length"
attr unit b
vector 11 SingleCell_Standalone.upf.pppIf.queue queueLength:vector ETV
attr autoWarmupFilter false
attr interpolationmode sample-hold
attr recordingmode vector
attr source "warmup(atomic(constant0(packetPushEnded) + count(packetPushStarted) - count(packetPulled) - count(packetRemoved) - count(packetDropped)))"
attr title "queue length"
attr unit pk
vector 12 SingleCell_Standalone.upf.pppIf.queue queueBitLength:vector ETV
attr autoWarmupFilter false
attr interpolationmode sample-hold
attr recordingmode vector
attr source "warmup(atomic(constant0(packetPushEnded) + sum(packetLength(packetPushStarted)) - sum(packetLength(packetPulled)) - sum(packetLength(packetRemoved)) - sum(packetLength(packetDropped))))"
attr title "queue bit length"
attr unit b
vector 13 SingleCell_Standalone.upf.udp passedUpPk:vector(count) ETV
attr interpolationmode none
attr recordingmode vector(count)
attr source packetSentToUpper
attr title "packets passed up, count"
vector 14 SingleCell_Standalone.upf.udp droppedPkWrongPort:vector(count) ETV
attr interpolationmode none
attr recordingmode vector(count)
attr source packetDropReasonIsNoPortFound(packetDropped)
attr title "packets dropped (wrong port), count"
vector 15 SingleCell_Standalone.upf.udp droppedPkBadChecksum:vector(count) ETV
attr interpolationmode none
attr recordingmode vector(count)
attr source packetDropReasonIsIncorrectlyReceived(packetDropped)
attr title "packets dropped (checksum error), count"
vector 16 SingleCell_Standalone.iUpf.ppp[0].queue queueLength:vector ETV
attr autoWarmupFilter false
attr interpolationmode sample-hold
attr recordingmode vector
attr source "warmup(atomic(constant0(packetPushEnded) + count(packetPushStarted) - count(packetPulled) - count(packetRemoved) - count(packetDropped)))"
attr title "queue length"
attr unit pk
vector 17 SingleCell_Standalone.iUpf.ppp[0].queue queueBitLength:vector ETV
attr autoWarmupFilter false
attr interpolationmode sample-hold
attr recordingmode vector
attr source "warmup(atomic(constant0(packetPushEnded) + sum(packetLength(packetPushStarted)) - sum(packetLength(packetPulled)) - sum(packetLength(packetRemoved)) - sum(packetLength(packetDropped))))"
attr title "queue bit length"
attr unit b
vector 18 SingleCell_Standalone.iUpf.ppp[1].queue queueLength:vector ETV
attr autoWarmupFilter false
attr interpolationmode sample-hold
attr recordingmode vector
attr source "warmup(atomic(constant0(packetPushEnded) + count(packetPushStarted) - count(packetPulled) - count(packetRemoved) - count(packetDropped)))"
attr title "queue length"
attr unit pk
vector 19 SingleCell_Standalone.iUpf.ppp[1].queue queueBitLength:vector ETV
attr autoWarmupFilter false
attr interpolationmode sample-hold
attr recordingmode vector
attr source "warmup(atomic(constant0(packetPushEnded) + sum(packetLength(packetPushStarted)) - sum(packetLength(packetPulled)) - sum(packetLength(packetRemoved)) - sum(packetLength(packetDropped))))"
attr title "queue bit length"
attr unit b
vector 20 SingleCell_Standalone.iUpf.pppIf.queue queueLength:vector ETV
attr autoWarmupFilter false
attr interpolationmode sample-hold
attr recordingmode vector
attr source "warmup(atomic(constant0(packetPushEnded) + count(packetPushStarted) - count(packetPulled) - count(packetRemoved) - count(packetDropped)))"
attr title "queue length"
attr unit pk
vector 21 SingleCell_Standalone.iUpf.pppIf.queue queueBitLength:vector ETV
attr autoWarmupFilter false
attr interpolationmode sample-hold
attr recordingmode vector
attr source "warmup(atomic(constant0(packetPushEnded) + sum(packetLength(packetPushStarted)) - sum(packetLength(packetPulled)) - sum(packetLength(packetRemoved)) - sum(packetLength(packetDropped))))"
attr title "queue bit length"
attr unit b
vector 22 SingleCell_Standalone.iUpf.udp passedUpPk:vector(count) ETV
attr interpolationmode none
attr recordingmode vector(count)
attr source packetSentToUpper
attr title "packets passed up, count"
vector 23 SingleCell_Standalone.iUpf.udp droppedPkWrongPort:vector(count) ETV
attr interpolationmode none
attr recordingmode vector(count)
attr source packetDropReasonIsNoPortFound(packetDropped)
attr title "packets dropped (wrong port), count"
vector 24 SingleCell_Standalone.iUpf.udp droppedPkBadChecksum:vector(count) ETV
attr interpolationmode none
attr recordingmode vector(count)
attr source packetDropReasonIsIncorrectlyReceived(packetDropped)
attr title "packets dropped (checksum error), count"
vector 25 SingleCell_Standalone.gnb.pppIf.queue queueLength:vector ETV
attr autoWarmupFilter false
attr interpolationmode sample-hold
attr recordingmode vector
attr source "warmup(atomic(constant0(packetPushEnded) + count(packetPushStarted) - count(packetPulled) - count(packetRemoved) - count(packetDropped)))"
attr title "queue length"
attr unit pk
vector 26 SingleCell_Standalone.gnb.pppIf.queue queueBitLength:vector ETV
attr autoWarmupFilter false
attr interpolationmode sample-hold
attr recordingmode vector
attr source "warmup(atomic(constant0(packetPushEnded) + sum(packetLength(packetPushStarted)) - sum(packetLength(packetPulled)) - sum(packetLength(packetRemoved)) - sum(packetLength(packetDropped))))"
attr title "queue bit length"
attr unit b
vector 27 SingleCell_Standalone.gnb.pppMEHostIf.queue queueLength:vector ETV
attr autoWarmupFilter false
attr interpolationmode sample-hold
attr recordingmode vector
attr source "warmup(atomic(constant0(packetPushEnded) + count(packetPushStarted) - count(packetPulled) - count(packetRemoved) - count(packetDropped)))"
attr title "queue length"
attr unit pk
vector 28 SingleCell_Standalone.gnb.pppMEHostIf.queue queueBitLength:vector ETV
attr autoWarmupFilter false
attr interpolationmode sample-hold
attr recordingmode vector
attr source "warmup(atomic(constant0(packetPushEnded) + sum(packetLength(packetPushStarted)) - sum(packetLength(packetPulled)) - sum(packetLength(packetRemoved)) - sum(packetLength(packetDropped))))"
attr title "queue bit length"
attr unit b
vector 29 SingleCell_Standalone.gnb.udp passedUpPk:vector(count) ETV
attr interpolationmode none
attr recordingmode vector(count)
attr source packetSentToUpper
attr title "packets passed up, count"
vector 30 SingleCell_Standalone.gnb.udp droppedPkWrongPort:vector(count) ETV
attr interpolationmode none
attr recordingmode vector(count)
attr source packetDropReasonIsNoPortFound(packetDropped)
attr title "packets dropped (wrong port), count"
vector 31 SingleCell_Standalone.gnb.udp droppedPkBadChecksum:vector(count) ETV
attr interpolationmode none
attr recordingmode vector(count)
attr source packetDropReasonIsIncorrectlyReceived(packetDropped)
attr title "packets dropped (checksum error), count"
vector 32 SingleCell_Standalone.ue[0].udp passedUpPk:vector(count) ETV
attr interpolationmode none
attr recordingmode vector(count)
attr source packetSentToUpper
attr title "packets passed up, count"
vector 33 SingleCell_Standalone.ue[0].udp droppedPkWrongPort:vector(count) ETV
attr interpolationmode none
attr recordingmode vector(count)
attr source packetDropReasonIsNoPortFound(packetDropped)
attr title "packets dropped (wrong port), count"
vector 34 SingleCell_Standalone.ue[0].udp droppedPkBadChecksum:vector(count) ETV
attr interpolationmode none
attr recordingmode vector(count)
attr source packetDropReasonIsIncorrectlyReceived(packetDropped)
attr title "packets dropped (checksum error), count"
vector 35 SingleCell_Standalone.bgCell[0].bgScheduler bgAvgServedBlocksUl:vector ETV
attr recordingmode vector
attr source bgAvgServedBlocksUl
attr title "Average UL served blocks for background cells"
attr unit ""
vector 36 SingleCell_Standalone.bgCell[0].bgTrafficGenerator.bgUE[2].generator bgAverageCqiDl:vector ETV
attr recordingmode vector
attr source bgAverageCqiDl
attr title "Average DL CQI for background UEs"
attr unit ""
vector 37 SingleCell_Standalone.bgCell[0].bgTrafficGenerator.bgUE[2].generator bgHarqErrorRateDl:vector ETV
attr recordingmode vector
attr source bgHarqErrorRateDl
attr title "Average DL HARQ error rate for background UEs"
attr unit ""
vector 38 SingleCell_Standalone.bgCell[0].bgTrafficGenerator.bgUE[1].generator bgAverageCqiDl:vector ETV
attr recordingmode vector
attr source bgAverageCqiDl
attr title "Average DL CQI for background UEs"
attr unit ""
vector 39 SingleCell_Standalone.bgCell[0].bgTrafficGenerator.bgUE[1].generator bgHarqErrorRateDl:vector ETV
attr recordingmode vector
attr source bgHarqErrorRateDl
attr title "Average DL HARQ error rate for background UEs"
attr unit ""
vector 40 SingleCell_Standalone.bgCell[0].bgScheduler bgAvgServedBlocksDl:vector ETV
attr recordingmode vector
attr source bgAvgServedBlocksDl
attr title "Average DL served blocks for background cells"
attr unit ""
vector 41 SingleCell_Standalone.gnb.cellularNic.mac avgServedBlocksUl:vector ETV
attr recordingmode vector
attr source avgServedBlocksUl
attr title "Avg Served Blocks Ul"
attr unit blocks
vector 42 SingleCell_Standalone.gnb.cellularNic.mac avgServedBlocksDl:vector ETV
attr recordingmode vector
attr source avgServedBlocksDl
attr title "Avg Served Blocks Dl"
attr unit blocks
vector 43 SingleCell_Standalone.bgCell[0].bgTrafficGenerator.bgUE[4].generator bgAverageCqiDl:vector ETV
attr recordingmode vector
attr source bgAverageCqiDl
attr title "Average DL CQI for background UEs"
attr unit ""
vector 44 SingleCell_Standalone.bgCell[0].bgTrafficGenerator.bgUE[4].generator bgHarqErrorRateDl:vector ETV
attr recordingmode vector
attr source bgHarqErrorRateDl
attr title "Average DL HARQ error rate for background UEs"
attr unit ""
vector 45 SingleCell_Standalone.bgCell[0].bgTrafficGenerator.bgUE[0].generator bgMeasuredSinrDl:vector ETV
attr recordingmode vector
attr source bgMeasuredSinrDl
attr title "Average DL SINR for background UEs"
attr unit ""
vector 46 SingleCell_Standalone.bgCell[0].bgTrafficGenerator.bgUE[1].generator bgMeasuredSinrDl:vector ETV
attr recordingmode vector
attr source bgMeasuredSinrDl
attr title "Average DL SINR for background UEs"
attr unit ""
vector 47 SingleCell_Standalone.bgCell[0].bgTrafficGenerator.bgUE[2].generator bgMeasuredSinrDl:vector ETV
attr recordingmode vector
attr source bgMeasuredSinrDl
attr title "Average DL SINR for background UEs"
attr unit ""
vector 48 SingleCell_Standalone.bgCell[0].bgTrafficGenerator.bgUE[3].generator bgMeasuredSinrDl:vector ETV
attr recordingmode vector
attr source bgMeasuredSinrDl
attr title "Average DL SINR for background UEs"
attr unit ""
vector 49 SingleCell_Standalone.bgCell[0].bgTrafficGenerator.bgUE[4].generator bgMeasuredSinrDl:vector ETV
attr recordingmode vector
attr source bgMeasuredSinrDl
attr title "Average DL SINR for background UEs"
attr unit ""
vector 50 SingleCell_Standalone.bgCell[0].bgTrafficGenerator.bgUE[5].generator bgMeasuredSinrDl:vector ETV
attr recordingmode vector
attr source bgMeasuredSinrDl
attr title "Average DL SINR for background UEs"
attr unit ""
vector 51 SingleCell_Standalone.bgCell[0].bgTrafficGenerator.bgUE[6].generator bgMeasuredSinrDl:vector ETV
attr recordingmode vector
attr source bgMeasuredSinrDl
attr title "Average DL SINR for background UEs"
attr unit ""
vector 52 SingleCell_Standalone.bgCell[0].bgTrafficGenerator.bgUE[7].generator bgMeasuredSinrDl:vector ETV
attr recordingmode vector
attr source bgMeasuredSinrDl
attr title "Average DL SINR for background UEs"
attr unit ""
vector 53 SingleCell_Standalone.bgCell[0].bgTrafficGenerator.bgUE[8].generator bgMeasuredSinrDl:vector ETV
attr recordingmode vector
attr source bgMeasuredSinrDl
attr title "Average DL SINR for background UEs"
attr unit ""
vector 54 SingleCell_Standalone.bgCell[0].bgTrafficGenerator.bgUE[9].generator bgMeasuredSinrDl:vector ETV
attr recordingmode vector
attr source bgMeasuredSinrDl
attr title "Average DL SINR for background UEs"
attr unit ""
vector 55 SingleCell_Standalone.server.udp packetSent:vector(packetBytes) ETV
attr interpolationmode none
attr recordingmode vector(packetBytes)
attr source packetSent
attr title "packets sent, packetBytes"
vector 56 SingleCell_Standalone.server.ppp[0].queue incomingPacketLengths:vector ETV
attr interpolationmode none
attr recordingmode vector
attr source packetLength(packetPushStarted)
attr title "incoming packet lengths"
attr unit b
vector 57 SingleCell_Standalone.server.ppp[0].queue incomingDataRate:vector ETV
attr interpolationmode linear
attr recordingmode vector
attr source throughput(packetPushStarted)
attr title "incoming datarate"
attr unit bps
vector 58 SingleCell_Standalone.server.ppp[0].queue queueingTime:vector ETV
attr interpolationmode none
attr recordingmode vector
attr source queueingTime(packetPulled)
attr title "queueing times"
attr unit s
vector 59 SingleCell_Standalone.server.ppp[0].queue outgoingPacketLengths:vector ETV
attr interpolationmode none
attr recordingmode vector
attr source packetLength(packetPulled)
attr title "outgoing packet lengths"
attr unit b
vector 60 SingleCell_Standalone.server.ppp[0].queue outgoingDataRate:vector ETV
attr interpolationmode linear
attr recordingmode vector
attr source throughput(packetPulled)
attr title "outgoing datarate"
attr unit bps
vector 61 SingleCell_Standalone.server.ppp[0].ppp rcvdPkFromHl:vector(packetBytes) ETV
attr interpolationmode none
attr recordingmode vector(packetBytes)
attr source packetReceivedFromUpper
attr title "packets received from higher layer, packetBytes"
vector 62 SingleCell_Standalone.server.ppp[0].ppp transmissionState:vector ETV
attr interpolationmode sample-hold
attr recordingmode vector
attr source transmissionStateChanged
attr title "tx state"
vector 63 SingleCell_Standalone.server.ppp[0].ppp txPk:vector(packetBytes) ETV
attr interpolationmode none
attr recordingmode vector(packetBytes)
attr source packetSentToLower
attr title "packets transmitted, packetBytes"
vector 64 SingleCell_Standalone.router.ppp[0].ppp rxPkOk:vector(packetBytes) ETV
attr interpolationmode none
attr recordingmode vector(packetBytes)
attr source rxPkOk
attr title "packets received OK, packetBytes"
vector 65 SingleCell_Standalone.router.ppp[0].ppp passedUpPk:vector(packetBytes) ETV
attr interpolationmode none
attr recordingmode vector(packetBytes)
attr source packetSentToUpper
attr title "packets passed to higher layer, packetBytes"
vector 66 SingleCell_Standalone.router.ppp[1].queue incomingPacketLengths:vector ETV
attr interpolationmode none
attr recordingmode vector
attr source packetLength(packetPushStarted)
attr title "incoming packet lengths"
attr unit b
vector 67 SingleCell_Standalone.router.ppp[1].queue incomingDataRate:vector ETV
attr interpolationmode linear
attr recordingmode vector
attr source throughput(packetPushStarted)
attr title "incoming datarate"
attr unit bps
vector 68 SingleCell_Standalone.router.ppp[1].queue queueingTime:vector ETV
attr interpolationmode none
attr recordingmode vector
attr source queueingTime(packetPulled)
attr title "queueing times"
attr unit s
vector 69 SingleCell_Standalone.router.ppp[1].queue outgoingPacketLengths:vector ETV
attr interpolationmode none
attr recordingmode vector
attr source packetLength(packetPulled)
attr title "outgoing packet lengths"
attr unit b
vector 70 SingleCell_Standalone.router.ppp[1].queue outgoingDataRate:vector ETV
attr interpolationmode linear
attr recordingmode vector
attr source throughput(packetPulled)
attr title "outgoing datarate"
attr unit bps
vector 71 SingleCell_Standalone.router.ppp[1].ppp rcvdPkFromHl:vector(packetBytes) ETV
attr interpolationmode none
attr recordingmode vector(packetBytes)
attr source packetReceivedFromUpper
attr title "packets received from higher layer, packetBytes"
vector 72 SingleCell_Standalone.router.ppp[1].ppp transmissionState:vector ETV
attr interpolationmode sample-hold
attr recordingmode vector
attr source transmissionStateChanged
attr title "tx state"
vector 73 SingleCell_Standalone.router.ppp[1].ppp txPk:vector(packetBytes) ETV
attr interpolationmode none
attr recordingmode vector(packetBytes)
attr source packetSentToLower
attr title "packets transmitted, packetBytes"
vector 74 SingleCell_Standalone.upf.pppIf.ppp rxPkOk:vector(packetBytes) ETV
attr interpolationmode none
attr recordingmode vector(packetBytes)
attr source rxPkOk
attr title "packets received OK, packetBytes"
vector 75 SingleCell_Standalone.upf.pppIf.ppp passedUpPk:vector(packetBytes) ETV
attr interpolationmode none
attr recordingmode vector(packetBytes)
attr source packetSentToUpper
attr title "packets passed to higher layer, packetBytes"
vector 76 SingleCell_Standalone.upf.udp packetSent:vector(packetBytes) ETV
attr interpolationmode none
attr recordingmode vector(packetBytes)
attr source packetSent
attr title "packets sent, packetBytes"
vector 77 SingleCell_Standalone.upf.ppp[0].queue incomingPacketLengths:vector ETV
attr interpolationmode none
attr recordingmode vector
attr source packetLength(packetPushStarted)
attr title "incoming packet lengths"
attr unit b
vector 78 SingleCell_Standalone.upf.ppp[0].queue incomingDataRate:vector ETV
attr interpolationmode linear
attr recordingmode vector
attr source throughput(packetPushStarted)
attr title "incoming datarate"
attr unit bps
vector 79 SingleCell_Standalone.upf.ppp[0].queue queueingTime:vector ETV
attr interpolationmode none
attr recordingmode vector
attr source queueingTime(packetPulled)
attr title "queueing times"
attr unit s
vector 80 SingleCell_Standalone.upf.ppp[0].queue outgoingPacketLengths:vector ETV
attr interpolationmode none
attr recordingmode vector
attr source packetLength(packetPulled)
attr title "outgoing packet lengths"
attr unit b
vector 81 SingleCell_Standalone.upf.ppp[0].queue outgoingDataRate:vector ETV
attr interpolationmode linear
attr recordingmode vector
attr source throughput(packetPulled)
attr title "outgoing datarate"
attr unit bps
vector 82 SingleCell_Standalone.upf.ppp[0].ppp rcvdPkFromHl:vector(packetBytes) ETV
attr interpolationmode none
attr recordingmode vector(packetBytes)
attr source packetReceivedFromUpper
attr title "packets received from higher layer, packetBytes"
vector 83 SingleCell_Standalone.upf.ppp[0].ppp transmissionState:vector ETV
attr interpolationmode sample-hold
attr recordingmode vector
attr source transmissionStateChanged
attr title "tx state"
vector 84 SingleCell_Standalone.upf.ppp[0].ppp txPk:vector(packetBytes) ETV
attr interpolationmode none
attr recordingmode vector(packetBytes)
attr source packetSentToLower
attr title "packets transmitted, packetBytes"
vector 85 SingleCell_Standalone.iUpf.ppp[0].ppp rxPkOk:vector(packetBytes) ETV
attr interpolationmode none
attr recordingmode vector(packetBytes)
attr source rxPkOk
attr title "packets received OK, packetBytes"
vector 86 SingleCell_Standalone.iUpf.ppp[0].ppp passedUpPk:vector(packetBytes) ETV
attr interpolationmode none
attr recordingmode vector(packetBytes)
attr source packetSentToUpper
attr title "packets passed to higher layer, packetBytes"
vector 87 SingleCell_Standalone.iUpf.ppp[1].queue incomingPacketLengths:vector ETV
attr interpolationmode none
attr recordingmode vector
attr source packetLength(packetPushStarted)
attr title "incoming packet lengths"
attr unit b
vector 88 SingleCell_Standalone.iUpf.ppp[1].queue incomingDataRate:vector ETV
attr interpolationmode linear
attr recordingmode vector
attr source throughput(packetPushStarted)
attr title "incoming datarate"
attr unit bps
vector 89 SingleCell_Standalone.iUpf.ppp[1].queue queueingTime:vector ETV
attr interpolationmode none
attr recordingmode vector
attr source queueingTime(packetPulled)
attr title "queueing times"
attr unit s
vector 90 SingleCell_Standalone.iUpf.ppp[1].queue outgoingPacketLengths:vector ETV
attr interpolationmode none
attr recordingmode vector
attr source packetLength(packetPulled)
attr title "outgoing packet lengths"
attr unit b
vector 91 SingleCell_Standalone.iUpf.ppp[1].queue outgoingDataRate:vector ETV
attr interpolationmode linear
attr recordingmode vector
attr source throughput(packetPulled)
attr title "outgoing datarate"
attr unit bps
vector 92 SingleCell_Standalone.iUpf.ppp[1].ppp rcvdPkFromHl:vector(packetBytes) ETV
attr interpolationmode none
attr recordingmode vector(packetBytes)
attr source packetReceivedFromUpper
attr title "packets received from higher layer, packetBytes"
vector 93 SingleCell_Standalone.iUpf.ppp[1].ppp transmissionState:vector ETV
attr interpolationmode sample-hold
attr recordingmode vector
attr source transmissionStateChanged
attr title "tx state"
vector 94 SingleCell_Standalone.iUpf.ppp[1].ppp txPk:vector(packetBytes) ETV
attr interpolationmode none
attr recordingmode vector(packetBytes)
attr source packetSentToLower
attr title "packets transmitted, packetBytes"
vector 95 SingleCell_Standalone.gnb.pppIf.ppp rxPkOk:vector(packetBytes) ETV
attr interpolationmode none
attr recordingmode vector(packetBytes)
attr source rxPkOk
attr title "packets received OK, packetBytes"
vector 96 SingleCell_Standalone.gnb.pppIf.ppp passedUpPk:vector(packetBytes) ETV
attr interpolationmode none
attr recordingmode vector(packetBytes)
attr source packetSentToUpper
attr title "packets passed to higher layer, packetBytes"
vector 97 SingleCell_Standalone.gnb.udp packetReceived:vector(packetBytes) ETV
attr interpolationmode none
attr recordingmode vector(packetBytes)
attr source packetReceived
attr title "packets received, packetBytes"
vector 98 SingleCell_Standalone.gnb.cellularNic.pdcpRrc receivedPacketFromUpperLayer:vector(packetBytes) ETV
attr interpolationmode none
attr recordingmode vector(packetBytes)
attr source receivedPacketFromUpperLayer
vector 99 SingleCell_Standalone.gnb.cellularNic.pdcpRrc sentPacketToLowerLayer:vector(packetBytes) ETV
attr interpolationmode none
attr recordingmode vector(packetBytes)
attr source sentPacketToLowerLayer
vector 100 SingleCell_Standalone.gnb.cellularNic.rlc.um receivedPacketFromUpperLayer:vector(packetBytes) ETV
attr interpolationmode none
attr recordingmode vector(packetBytes)
attr source receivedPacketFromUpperLayer
vector 101 SingleCell_Standalone.gnb.cellularNic.mac receivedPacketFromUpperLayer:vector(packetBytes) ETV
attr interpolationmode none
attr recordingmode vector(packetBytes)
attr source receivedPacketFromUpperLayer
vector 102 SingleCell_Standalone.gnb.cellularNic.mac sentPacketToUpperLayer:vector(packetBytes) ETV
attr interpolationmode none
attr recordingmode vector(packetBytes)
attr source sentPacketToUpperLayer
vector 103 SingleCell_Standalone.gnb.cellularNic.rlc.um rlcPacketLossDl:vector ETV
attr recordingmode vector
attr source rlcPacketLossDl
attr title "rlc Packet Loss"
attr unit ""
vector 104 SingleCell_Standalone.gnb.cellularNic.rlc.um sentPacketToLowerLayer:vector(packetBytes) ETV
attr interpolationmode none
attr recordingmode vector(packetBytes)
attr source sentPacketToLowerLayer
vector 105 SingleCell_Standalone.gnb.cellularNic.mac sentPacketToLowerLayer:vector(packetBytes) ETV
attr interpolationmode none
attr recordingmode vector(packetBytes)
attr source sentPacketToLowerLayer
vector 106 SingleCell_Standalone.ue[0].cellularNic.nrChannelModel[0] measuredSinrUl:vector ETV
attr recordingmode vector
attr source measuredSinrUl
attr title "SINR measured at feedback computation, UL"
attr unit dB
vector 107 SingleCell_Standalone.ue[0].cellularNic.nrChannelModel[0] measuredSinrDl:vector ETV
attr recordingmode vector
attr source measuredSinrDl
attr title "SINR measured at feedback computation, DL"
attr unit dB
vector 108 SingleCell_Standalone.gnb.cellularNic.mac receivedPacketFromLowerLayer:vector(packetBytes) ETV
attr interpolationmode none
attr recordingmode vector(packetBytes)
attr source receivedPacketFromLowerLayer
vector 109 SingleCell_Standalone.ue[0].cellularNic.nrPhy averageCqiDl:vector ETV
attr recordingmode vector
attr source averageCqiDl
attr title "Average Cqi reported in DL"
attr unit cqi
vector 110 SingleCell_Standalone.ue[0].cellularNic.nrChannelModel[0] distance:vector ETV
attr recordingmode vector
attr source distance
attr title "distance between UE and serving base station"
attr unit meters
vector 111 SingleCell_Standalone.ue[0].cellularNic.nrChannelModel[0] rcvdSinrDl:vector ETV
attr recordingmode vector
attr source rcvdSinrDl
attr title "SINR measured at packet reception, DL"
attr unit dB
vector 112 SingleCell_Standalone.ue[0].cellularNic.nrMac receivedPacketFromLowerLayer:vector(packetBytes) ETV
attr interpolationmode none
attr recordingmode vector(packetBytes)
attr source receivedPacketFromLowerLayer
vector 113 SingleCell_Standalone.bgCell[0].bgTrafficGenerator.bgUE[7].generator bgAverageCqiDl:vector ETV
attr recordingmode vector
attr source bgAverageCqiDl
attr title "Average DL CQI for background UEs"
attr unit ""
vector 114 SingleCell_Standalone.bgCell[0].bgTrafficGenerator.bgUE[7].generator bgHarqErrorRateDl:vector ETV
attr recordingmode vector
attr source bgHarqErrorRateDl
attr title "Average DL HARQ error rate for background UEs"
attr unit ""
vector 115 SingleCell_Standalone.ue[0].cellularNic.nrMac sentPacketToLowerLayer:vector(packetBytes) ETV
attr interpolationmode none
attr recordingmode vector(packetBytes)
attr source sentPacketToLowerLayer
vector 116 SingleCell_Standalone.gnb.cellularNic.mac macDelayDl:vector ETV
attr recordingmode vector
attr source macDelayDl
attr title "Delay at the MAC layer UL"
attr unit s
vector 117 SingleCell_Standalone.ue[0].cellularNic.nrMac sentPacketToUpperLayer:vector(packetBytes) ETV
attr interpolationmode none
attr recordingmode vector(packetBytes)
attr source sentPacketToUpperLayer
vector 118 SingleCell_Standalone.ue[0].cellularNic.nrRlc.um receivedPacketFromLowerLayer:vector(packetBytes) ETV
attr interpolationmode none
attr recordingmode vector(packetBytes)
attr source receivedPacketFromLowerLayer
vector 119 SingleCell_Standalone.ue[0].cellularNic.nrRlc.um rlcPduThroughputDl:vector ETV
attr recordingmode vector
attr source rlcPduThroughputDl
attr title "Throughput at the rlc layer DL"
attr unit Bps
vector 120 SingleCell_Standalone.ue[0].cellularNic.nrRlc.um rlcPduDelayDl:vector ETV
attr recordingmode vector
attr source rlcPduDelayDl
attr title "Delay at the rlc layer UL"
attr unit s
vector 121 SingleCell_Standalone.ue[0].cellularNic.nrRlc.um rlcPduPacketLossDl:vector ETV
attr recordingmode vector
attr source rlcPduPacketLossDl
attr title "rlc Packet Loss"
attr unit ""
vector 122 SingleCell_Standalone.ue[0].cellularNic.nrRlc.um rlcThroughputDl:vector ETV
attr recordingmode vector
attr source rlcThroughputDl
attr title "Throughput at the rlc layer DL"
attr unit Bps
vector 123 SingleCell_Standalone.ue[0].cellularNic.nrRlc.um rlcPacketLossDl:vector ETV
attr recordingmode vector
attr source rlcPacketLossDl
attr title "rlc Packet Loss"
attr unit ""
vector 124 SingleCell_Standalone.ue[0].cellularNic.nrRlc.um rlcPacketLossTotal:vector ETV
attr recordingmode vector
attr source rlcPacketLossTotal
attr title "rlc Packet Loss"
attr unit ""
vector 125 SingleCell_Standalone.ue[0].cellularNic.nrRlc.um rlcDelayDl:vector ETV
attr recordingmode vector
attr source rlcDelayDl
attr title "Delay at the rlc layer DL"
attr unit s
vector 126 SingleCell_Standalone.ue[0].cellularNic.nrRlc.um sentPacketToUpperLayer:vector(packetBytes) ETV
attr interpolationmode none
attr recordingmode vector(packetBytes)
attr source sentPacketToUpperLayer
vector 127 SingleCell_Standalone.ue[0].cellularNic.pdcpRrc receivedPacketFromLowerLayer:vector(packetBytes) ETV
attr interpolationmode none
attr recordingmode vector(packetBytes)
attr source receivedPacketFromLowerLayer
vector 128 SingleCell_Standalone.ue[0].cellularNic.pdcpRrc sentPacketToUpperLayer:vector(packetBytes) ETV
attr interpolationmode none
attr recordingmode vector(packetBytes)
attr source sentPacketToUpperLayer
vector 129 SingleCell_Standalone.ue[0].udp packetReceived:vector(packetBytes) ETV
attr interpolationmode none
attr recordingmode vector(packetBytes)
attr source packetReceived
attr title "packets received, packetBytes"
vector 130 SingleCell_Standalone.ue[0].app[0] cbrReceivedBytes:vector ETV
attr recordingmode vector
attr source cbrReceivedBytesSignal
attr title "Bytes received at the application level"
attr unit Bps
vector 131 SingleCell_Standalone.ue[0].app[0] cbrFrameDelay:vector ETV
attr recordingmode vector
attr source cbrFrameDelaySignal
attr title "Cbr Frame Delay"
attr unit s
vector 132 SingleCell_Standalone.ue[0].app[0] cbrRcvdPkt:vector ETV
attr recordingmode vector
attr source cbrRcvdPkt
attr title "Received packet ID"
attr unit ""
vector 133 SingleCell_Standalone.ue[0].cellularNic.nrMac harqErrorRate_1st_Dl:vector ETV
attr recordingmode vector
attr source harqErrorRate_1st_Dl
attr title "Harq Error Rate Dl (1st tx)"
attr unit ""
vector 134 SingleCell_Standalone.ue[0].cellularNic.nrMac harqErrorRateDl:vector ETV
attr recordingmode vector
attr source harqErrorRateDl
attr title "Harq Error Rate Dl"
attr unit ""
vector 135 SingleCell_Standalone.ue[0].cellularNic.nrMac harqTxAttemptsDl:vector ETV
attr recordingmode vector
attr source harqTxAttemptsDl
attr title "Harq Tx Attempts Dl"
attr unit ""
vector 136 SingleCell_Standalone.bgCell[0].bgTrafficGenerator.bgUE[3].generator bgAverageCqiDl:vector ETV
attr recordingmode vector
attr source bgAverageCqiDl
attr title "Average DL CQI for background UEs"
attr unit ""
vector 137 SingleCell_Standalone.bgCell[0].bgTrafficGenerator.bgUE[3].generator bgHarqErrorRateDl:vector ETV
attr recordingmode vector
attr source bgHarqErrorRateDl
attr title "Average DL HARQ error rate for background UEs"
attr unit ""
vector 138 SingleCell_Standalone.bgCell[0].bgTrafficGenerator.bgUE[8].generator bgAverageCqiDl:vector ETV
attr recordingmode vector
attr source bgAverageCqiDl
attr title "Average DL CQI for background UEs"
attr unit ""
vector 139 SingleCell_Standalone.bgCell[0].bgTrafficGenerator.bgUE[8].generator bgHarqErrorRateDl:vector ETV
attr recordingmode vector
attr source bgHarqErrorRateDl
attr title "Average DL HARQ error rate for background UEs"
attr unit ""
vector 140 SingleCell_Standalone.bgCell[0].bgTrafficGenerator.bgUE[5].generator bgAverageCqiDl:vector ETV
attr recordingmode vector
attr source bgAverageCqiDl
attr title "Average DL CQI for background UEs"
attr unit ""
vector 141 SingleCell_Standalone.bgCell[0].bgTrafficGenerator.bgUE[5].generator bgHarqErrorRateDl:vector ETV
attr recordingmode vector
attr source bgHarqErrorRateDl
attr title "Average DL HARQ error rate for background UEs"
attr unit ""
vector 142 SingleCell_Standalone.bgCell[0].bgTrafficGenerator.bgUE[6].generator bgAverageCqiDl:vector ETV
attr recordingmode vector
attr source bgAverageCqiDl
attr title "Average DL CQI for background UEs"
attr unit ""
vector 143 SingleCell_Standalone.bgCell[0].bgTrafficGenerator.bgUE[6].generator bgHarqErrorRateDl:vector ETV
attr recordingmode vector
attr source bgHarqErrorRateDl
attr title "Average DL HARQ error rate for background UEs"
attr unit ""
vector 144 SingleCell_Standalone.bgCell[0].bgTrafficGenerator.bgUE[0].generator bgAverageCqiDl:vector ETV
attr recordingmode vector
attr source bgAverageCqiDl
attr title "Average DL CQI for background UEs"
attr unit ""
vector 145 SingleCell_Standalone.bgCell[0].bgTrafficGenerator.bgUE[0].generator bgHarqErrorRateDl:vector ETV
attr recordingmode vector
attr source bgHarqErrorRateDl
attr title "Average DL HARQ error rate for background UEs"
attr unit ""
vector 146 SingleCell_Standalone.bgCell[0].bgTrafficGenerator.bgUE[9].generator bgAverageCqiDl:vector ETV
attr recordingmode vector
attr source bgAverageCqiDl
attr title "Average DL CQI for background UEs"
attr unit ""
vector 147 SingleCell_Standalone.bgCell[0].bgTrafficGenerator.bgUE[9].generator bgHarqErrorRateDl:vector ETV
attr recordingmode vector
attr source bgHarqErrorRateDl
attr title "Average DL HARQ error rate for background UEs"
attr unit ""
0	0	1	0
0	0	1	0
0	0	1	0
0	0	1	0
0	0	1	0
0	14066	1.00246073897	0
0	14201	1.01246073897	0
0	14348	1.02246073897	0
0	14492	1.03246073897	0
0	14631	1.04246073897	0
0	14780	1.05246073897	0
0	14925	1.06246073897	0
0	15062	1.07246073897	0
0	15209	1.08246073897	0
0	15353	1.09246073897	0
0	15489	1.10246073897	0
0	15637	1.11246073897	0
0	15781	1.12246073897	0
0	15917	1.13246073897	0
0	16066	1.14246073897	0
0	16211	1.15246073897	0
0	16346	1.16246073897	0
0	16493	1.17246073897	0
0	16639	1.18246073897	0
0	16775	1.19246073897	0
0	16923	1.20246073897	0
0	17067	1.21246073897	0
0	17204	1.22246073897	0
0	17356	1.23246073897	0
0	17500	1.24246073897	0
0	17636	1.25246073897	0
0	17783	1.26246073897	0
0	17926	1.27246073897	0
0	18062	1.28246073897	0
0	18210	1.29246073897	0
0	18355	1.30246073897	0
0	18491	1.31246073897	0
0	18639	1.32246073897	0
0	18784	1.33246073897	0
0	18919	1.34246073897	0
0	19067	1.35246073897	0
0	19212	1.36246073897	0
0	19349	1.37246073897	0
0	19499	1.38246073897	0
0	19642	1.39246073897	0
0	19778	1.40246073897	0
0	19925	1.41246073897	0
0	20068	1.42246073897	0
0	20203	1.43246073897	0
0	20352	1.44246073897	0
0	20496	1.45246073897	0
0	20633	1.46246073897	0
0	20780	1.47246073897	0
0	20925	1.48246073897	0
0	21063	1.49246073897	0
0	21211	1.50246073897	0
0	21356	1.51246073897	0
0	21494	1.52246073897	0
0	21641	1.53246073897	0
0	21786	1.54246073897	0
0	21921	1.55246073897	0
0	22071	1.56246073897	0
0	22216	1.57246073897	0
0	22353	1.58246073897	0
0	22502	1.59246073897	0
0	22648	1.60246073897	0
0	22788	1.61246073897	0
0	22935	1.62246073897	0
0	23078	1.63246073897	0
0	23213	1.64246073897	0
0	23360	1.65246073897	0
0	23504	1.66246073897	0
0	23640	1.67246073897	0
0	23787	1.68246073897	0
0	23930	1.69246073897	0
0	24065	1.70246073897	0
0	24214	1.71246073897	0
0	24362	1.72246073897	0
0	24499	1.73246073897	0
0	24646	1.74246073897	0
0	24791	1.75246073897	0
0	24927	1.76246073897	0
0	25076	1.77246073897	0
0	25219	1.78246073897	0
0	25356	1.79246073897	0
0	25504	1.80246073897	0
0	25647	1.81246073897	0
0	25784	1.82246073897	0
0	25930	1.83246073897	0
0	26074	1.84246073897	0
0	26212	1.85246073897	0
0	26359	1.86246073897	0
0	26505	1.87246073897	0
0	26641	1.88246073897	0
0	26789	1.89246073897	0
0	26936	1.90246073897	0
0	27072	1.91246073897	0
0	27221	1.92246073897	0
0	27364	1.93246073897	0
0	27501	1.94246073897	0
0	27648	1.95246073897	0
0	27792	1.96246073897	0
0	27928	1.97246073897	0
0	28076	1.98246073897	0
0	28220	1.99246073897	0
0	28355	2.00246073897	0
0	28501	2.01246073897	0
0	28645	2.02246073897	0
0	28784	2.03246073897	0
0	28930	2.04246073897	0
0	29077	2.05246073897	0
0	29213	2.06246073897	0
0	29360	2.07246073897	0
0	29503	2.08246073897	0
0	29639	2.09246073897	0
0	29788	2.10246073897	0
0	29931	2.11246073897	0
0	30068	2.12246073897	0
0	30215	2.13246073897	0
0	30359	2.14246073897	0
0	30494	2.15246073897	0
0	30641	2.16246073897	0
0	30784	2.17246073897	0
0	30920	2.18246073897	0
0	31068	2.19246073897	0
0	31214	2.20246073897	0
0	31352	2.21246073897	0
0	31500	2.22246073897	0
0	31644	2.23246073897	0
0	31782	2.24246073897	0
0	31929	2.25246073897	0
0	32073	2.26246073897	0
0	32209	2.27246073897	0
0	32357	2.28246073897	0
0	32500	2.29246073897	0
0	32640	2.30246073897	0
0	32786	2.31246073897	0
0	32931	2.32246073897	0
0	33067	2.33246073897	0
0	33215	2.34246073897	0
0	33363	2.35246073897	0
0	33498	2.36246073897	0
0	33645	2.37246073897	0
0	33789	2.38246073897	0
0	33927	2.39246073897	0
0	34073	2.40246073897	0
0	34218	2.41246073897	0
0	34354	2.42246073897	0
0	34502	2.43246073897	0
0	34646	2.44246073897	0
0	34782	2.45246073897	0
0	34930	2.46246073897	0
0	35074	2.47246073897	0
0	35210	2.48246073897	0
0	35358	2.49246073897	0
0	35502	2.50246073897	0
0	35637	2.51246073897	0
0	35786	2.52246073897	0
0	35931	2.53246073897	0
0	36066	2.54246073897	0
0	36213	2.55246073897	0
0	36357	2.56246073897	0
0	36493	2.57246073897	0
0	36642	2.58246073897	0
0	36785	2.59246073897	0
0	36921	2.60246073897	0
0	37070	2.61246073897	0
0	37216	2.62246073897	0
0	37351	2.63246073897	0
0	37499	2.64246073897	0
0	37643	2.65246073897	0
0	37779	2.66246073897	0
0	37927	2.67246073897	0
0	38072	2.68246073897	0
0	38209	2.69246073897	0
0	38357	2.70246073897	0
0	38500	2.71246073897	0
0	38635	2.72246073897	0
0	38782	2.73246073897	0
0	38929	2.74246073897	0
0	39065	2.75246073897	0
0	39211	2.76246073897	0
0	39355	2.77246073897	0
0	39491	2.78246073897	0
0	39638	2.79246073897	0
0	39782	2.80246073897	0
0	39918	2.81246073897	0
0	40065	2.82246073897	0
0	40212	2.83246073897	0
0	40347	2.84246073897	0
0	40495	2.85246073897	0
0	40639	2.86246073897	0
0	40776	2.87246073897	0
0	40924	2.88246073897	0
0	41070	2.89246073897	0
0	41206	2.90246073897	0
0	41353	2.91246073897	0
0	41496	2.92246073897	0
0	41633	2.93246073897	0
0	41780	2.94246073897	0
0	41924	2.95246073897	0
0	42062	2.96246073897	0
0	42210	2.97246073897	0
0	42353	2.98246073897	0
0	42490	2.99246073897	0
1	0	1	0
1	0	1	0
1	0	1	0
1	0	1	0
1	0	1	0
1	14066	1.00246073897	0
1	14201	1.01246073897	0
1	14348	1.02246073897	0
1	14492	1.03246073897	0
1	14631	1.04246073897	0
1	14780	1.05246073897	0
1	14925	1.06246073897	0
1	15062	1.07246073897	0
1	15209	1.08246073897	0
1	15353	1.09246073897	0
1	15489	1.10246073897	0
1	15637	1.11246073897	0
1	15781	1.12246073897	0
1	15917	1.13246073897	0
1	16066	1.14246073897	0
1	16211	1.15246073897	0
1	16346	1.16246073897	0
1	16493	1.17246073897	0
1	16639	1.18246073897	0
1	16775	1.19246073897	0
1	16923	1.20246073897	0
1	17067	1.21246073897	0
1	17204	1.22246073897	0
1	17356	1.23246073897	0
1	17500	1.24246073897	0
1	17636	1.25246073897	0
1	17783	1.26246073897	0
1	17926	1.27246073897	0
1	18062	1.28246073897	0
1	18210	1.29246073897	0
1	18355	1.30246073897	0
1	18491	1.31246073897	0
1	18639	1.32246073897	0
1	18784	1.33246073897	0
1	18919	1.34246073897	0
1	19067	1.35246073897	0
1	19212	1.36246073897	0
1	19349	1.37246073897	0
1	19499	1.38246073897	0
1	19642	1.39246073897	0
1	19778	1.40246073897	0
1	19925	1.41246073897	0
1	20068	1.42246073897	0
1	20203	1.43246073897	0
1	20352	1.44246073897	0
1	20496	1.45246073897	0
1	20633	1.46246073897	0
1	20780	1.47246073897	0
1	20925	1.48246073897	0
1	21063	1.49246073897	0
1	21211	1.50246073897	0
1	21356	1.51246073897	0
1	21494	1.52246073897	0
1	21641	1.53246073897	0
1	21786	1.54246073897	0
1	21921	1.55246073897	0
1	22071	1.56246073897	0
1	22216	1.57246073897	0
1	22353	1.58246073897	0
1	22502	1.59246073897	0
1	22648	1.60246073897	0
1	22788	1.61246073897	0
1	22935	1.62246073897	0
1	23078	1.63246073897	0
1	23213	1.64246073897	0
1	23360	1.65246073897	0
1	23504	1.66246073897	0
1	23640	1.67246073897	0
1	23787	1.68246073897	0
1	23930	1.69246073897	0
1	24065	1.70246073897	0
1	24214	1.71246073897	0
1	24362	1.72246073897	0
1	24499	1.73246073897	0
1	24646	1.74246073897	0
1	24791	1.75246073897	0
1	24927	1.76246073897	0
1	25076	1.77246073897	0
1	25219	1.78246073897	0
1	25356	1.79246073897	0
1	25504	1.80246073897	0
1	25647	1.81246073897	0
1	25784	1.82246073897	0
1	25930	1.83246073897	0
1	26074	1.84246073897	0
1	26212	1.85246073897	0
1	26359	1.86246073897	0
1	26505	1.87246073897	0
1	26641	1.88246073897	0
1	26789	1.89246073897	0
1	26936	1.90246073897	0
1	27072	1.91246073897	0
1	27221	1.92246073897	0
1	27364	1.93246073897	0
1	27501	1.94246073897	0
1	27648	1.95246073897	0
1	27792	1.96246073897	0
1	27928	1.97246073897	0
1	28076	1.98246073897	0
1	28220	1.99246073897	0
1	28355	2.00246073897	0
1	28501	2.01246073897	0
1	28645	2.02246073897	0
1	28784	2.03246073897	0
1	28930	2.04246073897	0
1	29077	2.05246073897	0
1	29213	2.06246073897	0
1	29360	2.07246073897	0
1	29503	2.08246073897	0
1	29639	2.09246073897	0
1	29788	2.10246073897	0
1	29931	2.11246073897	0
1	30068	2.12246073897	0
1	30215	2.13246073897	0
1	30359	2.14246073897	0
1	30494	2.15246073897	0
1	30641	2.16246073897	0
1	30784	2.17246073897	0
1	30920	2.18246073897	0
1	31068	2.19246073897	0
1	31214	2.20246073897	0
1	31352	2.21246073897	0
1	31500	2.22246073897	0
1	31644	2.23246073897	0
1	31782	2.24246073897	0
1	31929	2.25246073897	0
1	32073	2.26246073897	0
1	32209	2.27246073897	0
1	32357	2.28246073897	0
1	32500	2.29246073897	0
1	32640	2.30246073897	0
1	32786	2.31246073897	0
1	32931	2.32246073897	0
1	33067	2.33246073897	0
1	33215	2.34246073897	0
1	33363	2.35246073897	0
1	33498	2.36246073897	0
1	33645	2.37246073897	0
1	33789	2.38246073897	0
1	33927	2.39246073897	0
1	34073	2.40246073897	0
1	34218	2.41246073897	0
1	34354	2.42246073897	0
1	34502	2.43246073897	0
1	34646	2.44246073897	0
1	34782	2.45246073897	0
1	34930	2.46246073897	0
1	35074	2.47246073897	0
1	35210	2.48246073897	0
1	35358	2.49246073897	0
1	35502	2.50246073897	0
1	35637	2.51246073897	0
1	35786	2.52246073897	0
1	35931	2.53246073897	0
1	36066	2.54246073897	0
1	36213	2.55246073897	0
1	36357	2.56246073897	0
1	36493	2.57246073897	0
1	36642	2.58246073897	0
1	36785	2.59246073897	0
1	36921	2.60246073897	0
1	37070	2.61246073897	0
1	37216	2.62246073897	0
1	37351	2.63246073897	0
1	37499	2.64246073897	0
1	37643	2.65246073897	0
1	37779	2.66246073897	0
1	37927	2.67246073897	0
1	38072	2.68246073897	0
1	38209	2.69246073897	0
1	38357	2.70246073897	0
1	38500	2.71246073897	0
1	38635	2.72246073897	0
1	38782	2.73246073897	0
1	38929	2.74246073897	0
1	39065	2.75246073897	0
1	39211	2.76246073897	0
1	39355	2.77246073897	0
1	39491	2.78246073897	0
1	39638	2.79246073897	0
1	39782	2.80246073897	0
1	39918	2.81246073897	0
1	40065	2.82246073897	0
1	40212	2.83246073897	0
1	40347	2.84246073897	0
1	40495	2.85246073897	0
1	40639	2.86246073897	0
1	40776	2.87246073897	0
1	40924	2.88246073897	0
1	41070	2.89246073897	0
1	41206	2.90246073897	0
1	41353	2.91246073897	0
1	41496	2.92246073897	0
1	41633	2.93246073897	0
1	41780	2.94246073897	0
1	41924	2.95246073897	0
1	42062	2.96246073897	0
1	42210	2.97246073897	0
1	42353	2.98246073897	0
1	42490	2.99246073897	0
2	0	1	0
3	0	1	0
4	0	1	0
5	0	1	0
5	0	1	0
5	0	1	0
5	0	1	0
5	0	1	0
6	0	1	0
6	0	1	0
6	0	1	0
6	0	1	0
6	0	1	0
7	0	1	0
7	0	1	0
7	0	1	0
7	0	1	0
7	0	1	0
7	14070	1.00246161697	0
7	14205	1.01246161697	0
7	14352	1.02246161697	0
7	14496	1.03246161697	0
7	14635	1.04246161697	0
7	14784	1.05246161697	0
7	14929	1.06246161697	0
7	15066	1.07246161697	0
7	15213	1.08246161697	0
7	15357	1.09246161697	0
7	15493	1.10246161697	0
7	15641	1.11246161697	0
7	15785	1.12246161697	0
7	15921	1.13246161697	0
7	16070	1.14246161697	0
7	16215	1.15246161697	0
7	16350	1.16246161697	0
7	16497	1.17246161697	0
7	16643	1.18246161697	0
7	16779	1.19246161697	0
7	16927	1.20246161697	0
7	17071	1.21246161697	0
7	17208	1.22246161697	0
7	17360	1.23246161697	0
7	17504	1.24246161697	0
7	17640	1.25246161697	0
7	17787	1.26246161697	0
7	17930	1.27246161697	0
7	18066	1.28246161697	0
7	18214	1.29246161697	0
7	18359	1.30246161697	0
7	18495	1.31246161697	0
7	18643	1.32246161697	0
7	18788	1.33246161697	0
7	18923	1.34246161697	0
7	19071	1.35246161697	0
7	19216	1.36246161697	0
7	19353	1.37246161697	0
7	19503	1.38246161697	0
7	19646	1.39246161697	0
7	19782	1.40246161697	0
7	19929	1.41246161697	0
7	20072	1.42246161697	0
7	20207	1.43246161697	0
7	20356	1.44246161697	0
7	20500	1.45246161697	0
7	20637	1.46246161697	0
7	20784	1.47246161697	0
7	20929	1.48246161697	0
7	21067	1.49246161697	0
7	21215	1.50246161697	0
7	21360	1.51246161697	0
7	21498	1.52246161697	0
7	21645	1.53246161697	0
7	21790	1.54246161697	0
7	21925	1.55246161697	0
7	22075	1.56246161697	0
7	22220	1.57246161697	0
7	22357	1.58246161697	0
7	22506	1.59246161697	0
7	22652	1.60246161697	0
7	22792	1.61246161697	0
7	22939	1.62246161697	0
7	23082	1.63246161697	0
7	23217	1.64246161697	0
7	23364	1.65246161697	0
7	23508	1.66246161697	0
7	23644	1.67246161697	0
7	23791	1.68246161697	0
7	23934	1.69246161697	0
7	24069	1.70246161697	0
7	24218	1.71246161697	0
7	24366	1.72246161697	0
7	24503	1.73246161697	0
7	24650	1.74246161697	0
7	24795	1.75246161697	0
7	24931	1.76246161697	0
7	25080	1.77246161697	0
7	25223	1.78246161697	0
7	25360	1.79246161697	0
7	25508	1.80246161697	0
7	25651	1.81246161697	0
7	25788	1.82246161697	0
7	25934	1.83246161697	0
7	26078	1.84246161697	0
7	26216	1.85246161697	0
7	26363	1.86246161697	0
7	26509	1.87246161697	0
7	26645	1.88246161697	0
7	26793	1.89246161697	0
7	26940	1.90246161697	0
7	27076	1.91246161697	0
7	27225	1.92246161697	0
7	27368	1.93246161697	0
7	27505	1.94246161697	0
7	27652	1.95246161697	0
7	27796	1.96246161697	0
7	27932	1.97246161697	0
7	28080	1.98246161697	0
7	28224	1.99246161697	0
7	28359	2.00246161697	0
7	28505	2.01246161697	0
7	28649	2.02246161697	0
7	28788	2.03246161697	0
7	28934	2.04246161697	0
7	29081	2.05246161697	0
7	29217	2.06246161697	0
7	29364	2.07246161697	0
7	29507	2.08246161697	0
7	29643	2.09246161697	0
7	29792	2.10246161697	0
7	29935	2.11246161697	0
7	30072	2.12246161697	0
7	30219	2.13246161697	0
7	30363	2.14246161697	0
7	30498	2.15246161697	0
7	30645	2.16246161697	0
7	30788	2.17246161697	0
7	30924	2.18246161697	0
7	31072	2.19246161697	0
7	31218	2.20246161697	0
7	31356	2.21246161697	0
7	31504	2.22246161697	0
7	31648	2.23246161697	0
7	31786	2.24246161697	0
7	31933	2.25246161697	0
7	32077	2.26246161697	0
7	32213	2.27246161697	0
7	32361	2.28246161697	0
7	32504	2.29246161697	0
7	32644	2.30246161697	0
7	32790	2.31246161697	0
7	32935	2.32246161697	0
7	33071	2.33246161697	0
7	33219	2.34246161697	0
7	33367	2.35246161697	0
7	33502	2.36246161697	0
7	33649	2.37246161697	0
7	33793	2.38246161697	0
7	33931	2.39246161697	0
7	34077	2.40246161697	0
7	34222	2.41246161697	0
7	34358	2.42246161697	0
7	34506	2.43246161697	0
7	34650	2.44246161697	0
7	34786	2.45246161697	0
7	34934	2.46246161697	0
7	35078	2.47246161697	0
7	35214	2.48246161697	0
7	35362	2.49246161697	0
7	35506	2.50246161697	0
7	35641	2.51246161697	0
7	35790	2.52246161697	0
7	35935	2.53246161697	0
7	36070	2.54246161697	0
7	36217	2.55246161697	0
7	36361	2.56246161697	0
7	36497	2.57246161697	0
7	36646	2.58246161697	0
7	36789	2.59246161697	0
7	36925	2.60246161697	0
7	37074	2.61246161697	0
7	37220	2.62246161697	0
7	37355	2.63246161697	0
7	37503	2.64246161697	0
7	37647	2.65246161697	0
7	37783	2.66246161697	0
7	37931	2.67246161697	0
7	38076	2.68246161697	0
7	38213	2.69246161697	0
7	38361	2.70246161697	0
7	38504	2.71246161697	0
7	38639	2.72246161697	0
7	38786	2.73246161697	0
7	38933	2.74246161697	0
7	39069	2.75246161697	0
7	39215	2.76246161697	0
7	39359	2.77246161697	0
7	39495	2.78246161697	0
7	39642	2.79246161697	0
7	39786	2.80246161697	0
7	39922	2.81246161697	0
7	40069	2.82246161697	0
7	40216	2.83246161697	0
7	40351	2.84246161697	0
7	40499	2.85246161697	0
7	40643	2.86246161697	0
7	40780	2.87246161697	0
7	40928	2.88246161697	0
7	41074	2.89246161697	0
7	41210	2.90246161697	0
7	41357	2.91246161697	0
7	41500	2.92246161697	0
7	41637	2.93246161697	0
7	41784	2.94246161697	0
7	41928	2.95246161697	0
7	42066	2.96246161697	0
7	42214	2.97246161697	0
7	42357	2.98246161697	0
7	42494	2.99246161697	0
8	0	1	0
8	0	1	0
8	0	1	0
8	0	1	0
8	0	1	0
8	14070	1.00246161697	0
8	14205	1.01246161697	0
8	14352	1.02246161697	0
8	14496	1.03246161697	0
8	14635	1.04246161697	0
8	14784	1.05246161697	0
8	14929	1.06246161697	0
8	15066	1.07246161697	0
8	15213	1.08246161697	0
8	15357	1.09246161697	0
8	15493	1.10246161697	0
8	15641	1.11246161697	0
8	15785	1.12246161697	0
8	15921	1.13246161697	0
8	16070	1.14246161697	0
8	16215	1.15246161697	0
8	16350	1.16246161697	0
8	16497	1.17246161697	0
8	16643	1.18246161697	0
8	16779	1.19246161697	0
8	16927	1.20246161697	0
8	17071	1.21246161697	0
8	17208	1.22246161697	0
8	17360	1.23246161697	0
8	17504	1.24246161697	0
8	17640	1.25246161697	0
8	17787	1.26246161697	0
8	17930	1.27246161697	0
8	18066	1.28246161697	0
8	18214	1.29246161697	0
8	18359	1.30246161697	0
8	18495	1.31246161697	0
8	18643	1.32246161697	0
8	18788	1.33246161697	0
8	18923	1.34246161697	0
8	19071	1.35246161697	0
8	19216	1.36246161697	0
8	19353	1.37246161697	0
8	19503	1.38246161697	0
8	19646	1.39246161697	0
8	19782	1.40246161697	0
8	19929	1.41246161697	0
8	20072	1.42246161697	0
8	20207	1.43246161697	0
8	20356	1.44246161697	0
8	20500	1.45246161697	0
8	20637	1.46246161697	0
8	20784	1.47246161697	0
8	20929	1.48246161697	0
8	21067	1.49246161697	0
8	21215	1.50246161697	0
8	21360	1.51246161697	0
8	21498	1.52246161697	0
8	21645	1.53246161697	0
8	21790	1.54246161697	0
8	21925	1.55246161697	0
8	22075	1.56246161697	0
8	22220	1.57246161697	0
8	22357	1.58246161697	0
8	22506	1.59246161697	0
8	22652	1.60246161697	0
8	22792	1.61246161697	0
8	22939	1.62246161697	0
8	23082	1.63246161697	0
8	23217	1.64246161697	0
8	23364	1.65246161697	0
8	23508	1.66246161697	0
8	23644	1.67246161697	0
8	23791	1.68246161697	0
8	23934	1.69246161697	0
8	24069	1.70246161697	0
8	24218	1.71246161697	0
8	24366	1.72246161697	0
8	24503	1.73246161697	0
8	24650	1.74246161697	0
8	24795	1.75246161697	0
8	24931	1.76246161697	0
8	25080	1.77246161697	0
8	25223	1.78246161697	0
8	25360	1.79246161697	0
8	25508	1.80246161697	0
8	25651	1.81246161697	0
8	25788	1.82246161697	0
8	25934	1.83246161697	0
8	26078	1.84246161697	0
8	26216	1.85246161697	0
8	26363	1.86246161697	0
8	26509	1.87246161697	0
8	26645	1.88246161697	0
8	26793	1.89246161697	0
8	26940	1.90246161697	0
8	27076	1.91246161697	0
8	27225	1.92246161697	0
8	27368	1.93246161697	0
8	27505	1.94246161697	0
8	27652	1.95246161697	0
8	27796	1.96246161697	0
8	27932	1.97246161697	0
8	28080	1.98246161697	0
8	28224	1.99246161697	0
8	28359	2.00246161697	0
8	28505	2.01246161697	0
8	28649	2.02246161697	0
8	28788	2.03246161697	0
8	28934	2.04246161697	0
8	29081	2.05246161697	0
8	29217	2.06246161697	0
8	29364	2.07246161697	0
8	29507	2.08246161697	0
8	29643	2.09246161697	0
8	29792	2.10246161697	0
8	29935	2.11246161697	0
8	30072	2.12246161697	0
8	30219	2.13246161697	0
8	30363	2.14246161697	0
8	30498	2.15246161697	0
8	30645	2.16246161697	0
8	30788	2.17246161697	0
8	30924	2.18246161697	0
8	31072	2.19246161697	0
8	31218	2.20246161697	0
8	31356	2.21246161697	0
8	31504	2.22246161697	0
8	31648	2.23246161697	0
8	31786	2.24246161697	0
8	31933	2.25246161697	0
8	32077	2.26246161697	0
8	32213	2.27246161697	0
8	32361	2.28246161697	0
8	32504	2.29246161697	0
8	32644	2.30246161697	0
8	32790	2.31246161697	0
8	32935	2.32246161697	0
8	33071	2.33246161697	0
8	33219	2.34246161697	0
8	33367	2.35246161697	0
8	33502	2.36246161697	0
8	33649	2.37246161697	0
8	33793	2.38246161697	0
8	33931	2.39246161697	0
8	34077	2.40246161697	0
8	34222	2.41246161697	0
8	34358	2.42246161697	0
8	34506	2.43246161697	0
8	34650	2.44246161697	0
8	34786	2.45246161697	0
8	34934	2.46246161697	0
8	35078	2.47246161697	0
8	35214	2.48246161697	0
8	35362	2.49246161697	0
8	35506	2.50246161697	0
8	35641	2.51246161697	0
8	35790	2.52246161697	0
8	35935	2.53246161697	0
8	36070	2.54246161697	0
8	36217	2.55246161697	0
8	36361	2.56246161697	0
8	36497	2.57246161697	0
8	36646	2.58246161697	0
8	36789	2.59246161697	0
8	36925	2.60246161697	0
8	37074	2.61246161697	0
8	37220	2.62246161697	0
8	37355	2.63246161697	0
8	37503	2.64246161697	0
8	37647	2.65246161697	0
8	37783	2.66246161697	0
8	37931	2.67246161697	0
8	38076	2.68246161697	0
8	38213	2.69246161697	0
8	38361	2.70246161697	0
8	38504	2.71246161697	0
8	38639	2.72246161697	0
8	38786	2.73246161697	0
8	38933	2.74246161697	0
8	39069	2.75246161697	0
8	39215	2.76246161697	0
8	39359	2.77246161697	0
8	39495	2.78246161697	0
8	39642	2.79246161697	0
8	39786	2.80246161697	0
8	39922	2.81246161697	0
8	40069	2.82246161697	0
8	40216	2.83246161697	0
8	40351	2.84246161697	0
8	40499	2.85246161697	0
8	40643	2.86246161697	0
8	40780	2.87246161697	0
8	40928	2.88246161697	0
8	41074	2.89246161697	0
8	41210	2.90246161697	0
8	41357	2.91246161697	0
8	41500	2.92246161697	0
8	41637	2.93246161697	0
8	41784	2.94246161697	0
8	41928	2.95246161697	0
8	42066	2.96246161697	0
8	42214	2.97246161697	0
8	42357	2.98246161697	0
8	42494	2.99246161697	0
9	0	1	0
9	0	1	0
9	0	1	0
9	0	1	0
9	0	1	0
9	14077	1.00246249497	0
9	14212	1.01246249497	0
9	14359	1.02246249497	0
9	14503	1.03246249497	0
9	14642	1.04246249497	0
9	14791	1.05246249497	0
9	14936	1.06246249497	0
9	15073	1.07246249497	0
9	15220	1.08246249497	0
9	15364	1.09246249497	0
9	15500	1.10246249497	0
9	15648	1.11246249497	0
9	15792	1.12246249497	0
9	15928	1.13246249497	0
9	16077	1.14246249497	0
9	16222	1.15246249497	0
9	16357	1.16246249497	0
9	16504	1.17246249497	0
9	16650	1.18246249497	0
9	16786	1.19246249497	0
9	16934	1.20246249497	0
9	17078	1.21246249497	0
9	17215	1.22246249497	0
9	17367	1.23246249497	0
9	17511	1.24246249497	0
9	17647	1.25246249497	0
9	17794	1.26246249497	0
9	17937	1.27246249497	0
9	18073	1.28246249497	0
9	18221	1.29246249497	0
9	18366	1.30246249497	0
9	18502	1.31246249497	0
9	18650	1.32246249497	0
9	18795	1.33246249497	0
9	18930	1.34246249497	0
9	19078	1.35246249497	0
9	19223	1.36246249497	0
9	19360	1.37246249497	0
9	19510	1.38246249497	0
9	19653	1.39246249497	0
9	19789	1.40246249497	0
9	19936	1.41246249497	0
9	20079	1.42246249497	0
9	20214	1.43246249497	0
9	20363	1.44246249497	0
9	20507	1.45246249497	0
9	20644	1.46246249497	0
9	20791	1.47246249497	0
9	20936	1.48246249497	0
9	21074	1.49246249497	0
9	21222	1.50246249497	0
9	21367	1.51246249497	0
9	21505	1.52246249497	0
9	21652	1.53246249497	0
9	21797	1.54246249497	0
9	21932	1.55246249497	0
9	22082	1.56246249497	0
9	22227	1.57246249497	0
9	22364	1.58246249497	0
9	22513	1.59246249497	0
9	22659	1.60246249497	0
9	22799	1.61246249497	0
9	22946	1.62246249497	0
9	23089	1.63246249497	0
9	23224	1.64246249497	0
9	23371	1.65246249497	0
9	23515	1.66246249497	0
9	23651	1.67246249497	0
9	23798	1.68246249497	0
9	23941	1.69246249497	0
9	24076	1.70246249497	0
9	24225	1.71246249497	0
9	24373	1.72246249497	0
9	24510	1.73246249497	0
9	24657	1.74246249497	0
9	24802	1.75246249497	0
9	24938	1.76246249497	0
9	25087	1.77246249497	0
9	25230	1.78246249497	0
9	25367	1.79246249497	0
9	25515	1.80246249497	0
9	25658	1.81246249497	0
9	25795	1.82246249497	0
9	25941	1.83246249497	0
9	26085	1.84246249497	0
9	26223	1.85246249497	0
9	26370	1.86246249497	0
9	26516	1.87246249497	0
9	26652	1.88246249497	0
9	26800	1.89246249497	0
9	26947	1.90246249497	0
9	27083	1.91246249497	0
9	27232	1.92246249497	0
9	27375	1.93246249497	0
9	27512	1.94246249497	0
9	27659	1.95246249497	0
9	27803	1.96246249497	0
9	27939	1.97246249497	0
9	28087	1.98246249497	0
9	28231	1.99246249497	0
9	28366	2.00246249497	0
9	28512	2.01246249497	0
9	28656	2.02246249497	0
9	28795	2.03246249497	0
9	28941	2.04246249497	0
9	29088	2.05246249497	0
9	29224	2.06246249497	0
9	29371	2.07246249497	0
9	29514	2.08246249497	0
9	29650	2.09246249497	0
9	29799	2.10246249497	0
9	29942	2.11246249497	0
9	30079	2.12246249497	0
9	30226	2.13246249497	0
9	30370	2.14246249497	0
9	30505	2.15246249497	0
9	30652	2.16246249497	0
9	30795	2.17246249497	0
9	30931	2.18246249497	0
9	31079	2.19246249497	0
9	31225	2.20246249497	0
9	31363	2.21246249497	0
9	31511	2.22246249497	0
9	31655	2.23246249497	0
9	31793	2.24246249497	0
9	31940	2.25246249497	0
9	32084	2.26246249497	0
9	32220	2.27246249497	0
9	32368	2.28246249497	0
9	32511	2.29246249497	0
9	32651	2.30246249497	0
9	32797	2.31246249497	0
9	32942	2.32246249497	0
9	33078	2.33246249497	0
9	33226	2.34246249497	0
9	33374	2.35246249497	0
9	33509	2.36246249497	0
9	33656	2.37246249497	0
9	33800	2.38246249497	0
9	33938	2.39246249497	0
9	34084	2.40246249497	0
9	34229	2.41246249497	0
9	34365	2.42246249497	0
9	34513	2.43246249497	0
9	34657	2.44246249497	0
9	34793	2.45246249497	0
9	34941	2.46246249497	0
9	35085	2.47246249497	0
9	35221	2.48246249497	0
9	35369	2.49246249497	0
9	35513	2.50246249497	0
9	35648	2.51246249497	0
9	35797	2.52246249497	0
9	35942	2.53246249497	0
9	36077	2.54246249497	0
9	36224	2.55246249497	0
9	36368	2.56246249497	0
9	36504	2.57246249497	0
9	36653	2.58246249497	0
9	36796	2.59246249497	0
9	36932	2.60246249497	0
9	37081	2.61246249497	0
9	37227	2.62246249497	0
9	37362	2.63246249497	0
9	37510	2.64246249497	0
9	37654	2.65246249497	0
9	37790	2.66246249497	0
9	37938	2.67246249497	0
9	38083	2.68246249497	0
9	38220	2.69246249497	0
9	38368	2.70246249497	0
9	38511	2.71246249497	0
9	38646	2.72246249497	0
9	38793	2.73246249497	0
9	38940	2.74246249497	0
9	39076	2.75246249497	0
9	39222	2.76246249497	0
9	39366	2.77246249497	0
9	39502	2.78246249497	0
9	39649	2.79246249497	0
9	39793	2.80246249497	0
9	39929	2.81246249497	0
9	40076	2.82246249497	0
9	40223	2.83246249497	0
9	40358	2.84246249497	0
9	40506	2.85246249497	0
9	40650	2.86246249497	0
9	40787	2.87246249497	0
9	40935	2.88246249497	0
9	41081	2.89246249497	0
9	41217	2.90246249497	0
9	41364	2.91246249497	0
9	41507	2.92246249497	0
9	41644	2.93246249497	0
9	41791	2.94246249497	0
9	41935	2.95246249497	0
9	42073	2.96246249497	0
9	42221	2.97246249497	0
9	42364	2.98246249497	0
9	42501	2.99246249497	0
10	0	1	0
10	0	1	0
10	0	1	0
10	0	1	0
10	0	1	0
10	14077	1.00246249497	0
10	14212	1.01246249497	0
10	14359	1.02246249497	0
10	14503	1.03246249497	0
10	14642	1.04246249497	0
10	14791	1.05246249497	0
10	14936	1.06246249497	0
10	15073	1.07246249497	0
10	15220	1.08246249497	0
10	15364	1.09246249497	0
10	15500	1.10246249497	0
10	15648	1.11246249497	0
10	15792	1.12246249497	0
10	15928	1.13246249497	0
10	16077	1.14246249497	0
10	16222	1.15246249497	0
10	16357	1.16246249497	0
10	16504	1.17246249497	0
10	16650	1.18246249497	0
10	16786	1.19246249497	0
10	16934	1.20246249497	0
10	17078	1.21246249497	0
10	17215	1.22246249497	0
10	17367	1.23246249497	0
10	17511	1.24246249497	0
10	17647	1.25246249497	0
10	17794	1.26246249497	0
10	17937	1.27246249497	0
10	18073	1.28246249497	0
10	18221	1.29246249497	0
10	18366	1.30246249497	0
10	18502	1.31246249497	0
10	18650	1.32246249497	0
10	18795	1.33246249497	0
10	18930	1.34246249497	0
10	19078	1.35246249497	0
10	19223	1.36246249497	0
10	19360	1.37246249497	0
10	19510	1.38246249497	0
10	19653	1.39246249497	0
10	19789	1.40246249497	0
10	19936	1.41246249497	0
10	20079	1.42246249497	0
10	20214	1.43246249497	0
10	20363	1.44246249497	0
10	20507	1.45246249497	0
10	20644	1.46246249497	0
10	20791	1.47246249497	0
10	20936	1.48246249497	0
10	21074	1.49246249497	0
10	21222	1.50246249497	0
10	21367	1.51246249497	0
10	21505	1.52246249497	0
10	21652	1.53246249497	0
10	21797	1.54246249497	0
10	21932	1.55246249497	0
10	22082	1.56246249497	0
10	22227	1.57246249497	0
10	22364	1.58246249497	0
10	22513	1.59246249497	0
10	22659	1.60246249497	0
10	22799	1.61246249497	0
10	22946	1.62246249497	0
10	23089	1.63246249497	0
10	23224	1.64246249497	0
10	23371	1.65246249497	0
10	23515	1.66246249497	0
10	23651	1.67246249497	0
10	23798	1.68246249497	0
10	23941	1.69246249497	0
10	24076	1.70246249497	0
10	24225	1.71246249497	0
10	24373	1.72246249497	0
10	24510	1.73246249497	0
10	24657	1.74246249497	0
10	24802	1.75246249497	0
10	24938	1.76246249497	0
10	25087	1.77246249497	0
10	25230	1.78246249497	0
10	25367	1.79246249497	0
10	25515	1.80246249497	0
10	25658	1.81246249497	0
10	25795	1.82246249497	0
10	25941	1.83246249497	0
10	26085	1.84246249497	0
10	26223	1.85246249497	0
10	26370	1.86246249497	0
10	26516	1.87246249497	0
10	26652	1.88246249497	0
10	26800	1.89246249497	0
10	26947	1.90246249497	0
10	27083	1.91246249497	0
10	27232	1.92246249497	0
10	27375	1.93246249497	0
10	27512	1.94246249497	0
10	27659	1.95246249497	0
10	27803	1.96246249497	0
10	27939	1.97246249497	0
10	28087	1.98246249497	0
10	28231	1.99246249497	0
10	28366	2.00246249497	0
10	28512	2.01246249497	0
10	28656	2.02246249497	0
10	28795	2.03246249497	0
10	28941	2.04246249497	0
10	29088	2.05246249497	0
10	29224	2.06246249497	0
10	29371	2.07246249497	0
10	29514	2.08246249497	0
10	29650	2.09246249497	0
10	29799	2.10246249497	0
10	29942	2.11246249497	0
10	30079	2.12246249497	0
10	30226	2.13246249497	0
10	30370	2.14246249497	0
10	30505	2.15246249497	0
10	30652	2.16246249497	0
10	30795	2.17246249497	0
10	30931	2.18246249497	0
10	31079	2.19246249497	0
10	31225	2.20246249497	0
10	31363	2.21246249497	0
10	31511	2.22246249497	0
10	31655	2.23246249497	0
10	31793	2.24246249497	0
10	31940	2.25246249497	0
10	32084	2.26246249497	0
10	32220	2.27246249497	0
10	32368	2.28246249497	0
10	32511	2.29246249497	0
10	32651	2.30246249497	0
10	32797	2.31246249497	0
10	32942	2.32246249497	0
10	33078	2.33246249497	0
10	33226	2.34246249497	0
10	33374	2.35246249497	0
10	33509	2.36246249497	0
10	33656	2.37246249497	0
10	33800	2.38246249497	0
10	33938	2.39246249497	0
10	34084	2.40246249497	0
10	34229	2.41246249497	0
10	34365	2.42246249497	0
10	34513	2.43246249497	0
10	34657	2.44246249497	0
10	34793	2.45246249497	0
10	34941	2.46246249497	0
10	35085	2.47246249497	0
10	35221	2.48246249497	0
10	35369	2.49246249497	0
10	35513	2.50246249497	0
10	35648	2.51246249497	0
10	35797	2.52246249497	0
10	35942	2.53246249497	0
10	36077	2.54246249497	0
10	36224	2.55246249497	0
10	36368	2.56246249497	0
10	36504	2.57246249497	0
10	36653	2.58246249497	0
10	36796	2.59246249497	0
10	36932	2.60246249497	0
10	37081	2.61246249497	0
10	37227	2.62246249497	0
10	37362	2.63246249497	0
10	37510	2.64246249497	0
10	37654	2.65246249497	0
10	37790	2.66246249497	0
10	37938	2.67246249497	0
10	38083	2.68246249497	0
10	38220	2.69246249497	0
10	38368	2.70246249497	0
10	38511	2.71246249497	0
10	38646	2.72246249497	0
10	38793	2.73246249497	0
10	38940	2.74246249497	0
10	39076	2.75246249497	0
10	39222	2.76246249497	0
10	39366	2.77246249497	0
10	39502	2.78246249497	0
10	39649	2.79246249497	0
10	39793	2.80246249497	0
10	39929	2.81246249497	0
10	40076	2.82246249497	0
10	40223	2.83246249497	0
10	40358	2.84246249497	0
10	40506	2.85246249497	0
10	40650	2.86246249497	0
10	40787	2.87246249497	0
10	40935	2.88246249497	0
10	41081	2.89246249497	0
10	41217	2.90246249497	0
10	41364	2.91246249497	0
10	41507	2.92246249497	0
10	41644	2.93246249497	0
10	41791	2.94246249497	0
10	41935	2.95246249497	0
10	42073	2.96246249497	0
10	42221	2.97246249497	0
10	42364	2.98246249497	0
10	42501	2.99246249497	0
11	0	1	0
11	0	1	0
11	0	1	0
11	0	1	0
11	0	1	0
12	0	1	0
12	0	1	0
12	0	1	0
12	0	1	0
12	0	1	0
13	0	1	0
14	0	1	0
15	0	1	0
16	0	1	0
16	0	1	0
16	0	1	0
16	0	1	0
16	0	1	0
17	0	1	0
17	0	1	0
17	0	1	0
17	0	1	0
17	0	1	0
18	0	1	0
18	0	1	0
18	0	1	0
18	0	1	0
18	0	1	0
18	14081	1.00246340177	0
18	14216	1.01246340177	0
18	14363	1.02246340177	0
18	14507	1.03246340177	0
18	14646	1.04246340177	0
18	14795	1.05246340177	0
18	14940	1.06246340177	0
18	15077	1.07246340177	0
18	15224	1.08246340177	0
18	15368	1.09246340177	0
18	15504	1.10246340177	0
18	15652	1.11246340177	0
18	15796	1.12246340177	0
18	15932	1.13246340177	0
18	16081	1.14246340177	0
18	16226	1.15246340177	0
18	16361	1.16246340177	0
18	16508	1.17246340177	0
18	16654	1.18246340177	0
18	16790	1.19246340177	0
18	16938	1.20246340177	0
18	17082	1.21246340177	0
18	17219	1.22246340177	0
18	17371	1.23246340177	0
18	17515	1.24246340177	0
18	17651	1.25246340177	0
18	17798	1.26246340177	0
18	17941	1.27246340177	0
18	18077	1.28246340177	0
18	18225	1.29246340177	0
18	18370	1.30246340177	0
18	18506	1.31246340177	0
18	18654	1.32246340177	0
18	18799	1.33246340177	0
18	18934	1.34246340177	0
18	19082	1.35246340177	0
18	19227	1.36246340177	0
18	19364	1.37246340177	0
18	19514	1.38246340177	0
18	19657	1.39246340177	0
18	19793	1.40246340177	0
18	19940	1.41246340177	0
18	20083	1.42246340177	0
18	20218	1.43246340177	0
18	20367	1.44246340177	0
18	20511	1.45246340177	0
18	20648	1.46246340177	0
18	20795	1.47246340177	0
18	20940	1.48246340177	0
18	21078	1.49246340177	0
18	21226	1.50246340177	0
18	21371	1.51246340177	0
18	21509	1.52246340177	0
18	21656	1.53246340177	0
18	21801	1.54246340177	0
18	21936	1.55246340177	0
18	22086	1.56246340177	0
18	22231	1.57246340177	0
18	22368	1.58246340177	0
18	22517	1.59246340177	0
18	22663	1.60246340177	0
18	22803	1.61246340177	0
18	22950	1.62246340177	0
18	23093	1.63246340177	0
18	23228	1.64246340177	0
18	23375	1.65246340177	0
18	23519	1.66246340177	0
18	23655	1.67246340177	0
18	23802	1.68246340177	0
18	23945	1.69246340177	0
18	24080	1.70246340177	0
18	24229	1.71246340177	0
18	24377	1.72246340177	0
18	24514	1.73246340177	0
18	24661	1.74246340177	0
18	24806	1.75246340177	0
18	24942	1.76246340177	0
18	25091	1.77246340177	0
18	25234	1.78246340177	0
18	25371	1.79246340177	0
18	25519	1.80246340177	0
18	25662	1.81246340177	0
18	25799	1.82246340177	0
18	25945	1.83246340177	0
18	26089	1.84246340177	0
18	26227	1.85246340177	0
18	26374	1.86246340177	0
18	26520	1.87246340177	0
18	26656	1.88246340177	0
18	26804	1.89246340177	0
18	26951	1.90246340177	0
18	27087	1.91246340177	0
18	27236	1.92246340177	0
18	27379	1.93246340177	0
18	27516	1.94246340177	0
18	27663	1.95246340177	0
18	27807	1.96246340177	0
18	27943	1.97246340177	0
18	28091	1.98246340177	0
18	28235	1.99246340177	0
18	28370	2.00246340177	0
18	28516	2.01246340177	0
18	28660	2.02246340177	0
18	28799	2.03246340177	0
18	28945	2.04246340177	0
18	29092	2.05246340177	0
18	29228	2.06246340177	0
18	29375	2.07246340177	0
18	29518	2.08246340177	0
18	29654	2.09246340177	0
18	29803	2.10246340177	0
18	29946	2.11246340177	0
18	30083	2.12246340177	0
18	30230	2.13246340177	0
18	30374	2.14246340177	0
18	30509	2.15246340177	0
18	30656	2.16246340177	0
18	30799	2.17246340177	0
18	30935	2.18246340177	0
18	31083	2.19246340177	0
18	31229	2.20246340177	0
18	31367	2.21246340177	0
18	31515	2.22246340177	0
18	31659	2.23246340177	0
18	31797	2.24246340177	0
18	31944	2.25246340177	0
18	32088	2.26246340177	0
18	32224	2.27246340177	0
18	32372	2.28246340177	0
18	32515	2.29246340177	0
18	32655	2.30246340177	0
18	32801	2.31246340177	0
18	32946	2.32246340177	0
18	33082	2.33246340177	0
18	33230	2.34246340177	0
18	33378	2.35246340177	0
18	33513	2.36246340177	0
18	33660	2.37246340177	0
18	33804	2.38246340177	0
18	33942	2.39246340177	0
18	34088	2.40246340177	0
18	34233	2.41246340177	0
18	34369	2.42246340177	0
18	34517	2.43246340177	0
18	34661	2.44246340177	0
18	34797	2.45246340177	0
18	34945	2.46246340177	0
18	35089	2.47246340177	0
18	35225	2.48246340177	0
18	35373	2.49246340177	0
18	35517	2.50246340177	0
18	35652	2.51246340177	0
18	35801	2.52246340177	0
18	35946	2.53246340177	0
18	36081	2.54246340177	0
18	36228	2.55246340177	0
18	36372	2.56246340177	0
18	36508	2.57246340177	0
18	36657	2.58246340177	0
18	36800	2.59246340177	0
18	36936	2.60246340177	0
18	37085	2.61246340177	0
18	37231	2.62246340177	0
18	37366	2.63246340177	0
18	37514	2.64246340177	0
18	37658	2.65246340177	0
18	37794	2.66246340177	0
18	37942	2.67246340177	0
18	38087	2.68246340177	0
18	38224	2.69246340177	0
18	38372	2.70246340177	0
18	38515	2.71246340177	0
18	38650	2.72246340177	0
18	38797	2.73246340177	0
18	38944	2.74246340177	0
18	39080	2.75246340177	0
18	39226	2.76246340177	0
18	39370	2.77246340177	0
18	39506	2.78246340177	0
18	39653	2.79246340177	0
18	39797	2.80246340177	0
18	39933	2.81246340177	0
18	40080	2.82246340177	0
18	40227	2.83246340177	0
18	40362	2.84246340177	0
18	40510	2.85246340177	0
18	40654	2.86246340177	0
18	40791	2.87246340177	0
18	40939	2.88246340177	0
18	41085	2.89246340177	0
18	41221	2.90246340177	0
18	41368	2.91246340177	0
18	41511	2.92246340177	0
18	41648	2.93246340177	0
18	41795	2.94246340177	0
18	41939	2.95246340177	0
18	42077	2.96246340177	0
18	42225	2.97246340177	0
18	42368	2.98246340177	0
18	42505	2.99246340177	0
19	0	1	0
19	0	1	0
19	0	1	0
19	0	1	0
19	0	1	0
19	14081	1.00246340177	0
19	14216	1.01246340177	0
19	14363	1.02246340177	0
19	14507	1.03246340177	0
19	14646	1.04246340177	0
19	14795	1.05246340177	0
19	14940	1.06246340177	0
19	15077	1.07246340177	0
19	15224	1.08246340177	0
19	15368	1.09246340177	0
19	15504	1.10246340177	0
19	15652	1.11246340177	0
19	15796	1.12246340177	0
19	15932	1.13246340177	0
19	16081	1.14246340177	0
19	16226	1.15246340177	0
19	16361	1.16246340177	0
19	16508	1.17246340177	0
19	16654	1.18246340177	0
19	16790	1.19246340177	0
19	16938	1.20246340177	0
19	17082	1.21246340177	0
19	17219	1.22246340177	0
19	17371	1.23246340177	0
19	17515	1.24246340177	0
19	17651	1.25246340177	0
19	17798	1.26246340177	0
19	17941	1.27246340177	0
19	18077	1.28246340177	0
19	18225	1.29246340177	0
19	18370	1.30246340177	0
19	18506	1.31246340177	0
19	18654	1.32246340177	0
19	18799	1.33246340177	0
19	18934	1.34246340177	0
19	19082	1.35246340177	0
19	19227	1.36246340177	0
19	19364	1.37246340177	0
19	19514	1.38246340177	0
19	19657	1.39246340177	0
19	19793	1.40246340177	0
19	19940	1.41246340177	0
19	20083	1.42246340177	0
19	20218	1.43246340177	0
19	20367	1.44246340177	0
19	20511	1.45246340177	0
19	20648	1.46246340177	0
19	20795	1.47246340177	0
19	20940	1.48246340177	0
19	21078	1.49246340177	0
19	21226	1.50246340177	0
19	21371	1.51246340177	0
19	21509	1.52246340177	0
19	21656	1.53246340177	0
19	21801	1.54246340177	0
19	21936	1.55246340177	0
19	22086	1.56246340177	0
19	22231	1.57246340177	0
19	22368	1.58246340177	0
19	22517	1.59246340177	0
19	22663	1.60246340177	0
19	22803	1.61246340177	0
19	22950	1.62246340177	0
19	23093	1.63246340177	0
19	23228	1.64246340177	0
19	23375	1.65246340177	0
19	23519	1.66246340177	0
19	23655	1.67246340177	0
19	23802	1.68246340177	0
19	23945	1.69246340177	0
19	24080	1.70246340177	0
19	24229	1.71246340177	0
19	24377	1.72246340177	0
19	24514	1.73246340177	0
19	24661	1.74246340177	0
19	24806	1.75246340177	0
19	24942	1.76246340177	0
19	25091	1.77246340177	0
19	25234	1.78246340177	0
19	25371	1.79246340177	0
19	25519	1.80246340177	0
19	25662	1.81246340177	0
19	25799	1.82246340177	0
19	25945	1.83246340177	0
19	26089	1.84246340177	0
19	26227	1.85246340177	0
19	26374	1.86246340177	0
19	26520	1.87246340177	0
19	26656	1.88246340177	0
19	26804	1.89246340177	0
19	26951	1.90246340177	0
19	27087	1.91246340177	0
19	27236	1.92246340177	0
19	27379	1.93246340177	0
19	27516	1.94246340177	0
19	27663	1.95246340177	0
19	27807	1.96246340177	0
19	27943	1.97246340177	0
19	28091	1.98246340177	0
19	28235	1.99246340177	0
19	28370	2.00246340177	0
19	28516	2.01246340177	0
19	28660	2.02246340177	0
19	28799	2.03246340177	0
19	28945	2.04246340177	0
19	29092	2.05246340177	0
19	29228	2.06246340177	0
19	29375	2.07246340177	0
19	29518	2.08246340177	0
19	29654	2.09246340177	0
19	29803	2.10246340177	0
19	29946	2.11246340177	0
19	30083	2.12246340177	0
19	30230	2.13246340177	0
19	30374	2.14246340177	0
19	30509	2.15246340177	0
19	30656	2.16246340177	0
19	30799	2.17246340177	0
19	30935	2.18246340177	0
19	31083	2.19246340177	0
19	31229	2.20246340177	0
19	31367	2.21246340177	0
19	31515	2.22246340177	0
19	31659	2.23246340177	0
19	31797	2.24246340177	0
19	31944	2.25246340177	0
19	32088	2.26246340177	0
19	32224	2.27246340177	0
19	32372	2.28246340177	0
19	32515	2.29246340177	0
19	32655	2.30246340177	0
19	32801	2.31246340177	0
19	32946	2.32246340177	0
19	33082	2.33246340177	0
19	33230	2.34246340177	0
19	33378	2.35246340177	0
19	33513	2.36246340177	0
19	33660	2.37246340177	0
19	33804	2.38246340177	0
19	33942	2.39246340177	0
19	34088	2.40246340177	0
19	34233	2.41246340177	0
19	34369	2.42246340177	0
19	34517	2.43246340177	0
19	34661	2.44246340177	0
19	34797	2.45246340177	0
19	34945	2.46246340177	0
19	35089	2.47246340177	0
19	35225	2.48246340177	0
19	35373	2.49246340177	0
19	35517	2.50246340177	0
19	35652	2.51246340177	0
19	35801	2.52246340177	0
19	35946	2.53246340177	0
19	36081	2.54246340177	0
19	36228	2.55246340177	0
19	36372	2.56246340177	0
19	36508	2.57246340177	0
19	36657	2.58246340177	0
19	36800	2.59246340177	0
19	36936	2.60246340177	0
19	37085	2.61246340177	0
19	37231	2.62246340177	0
19	37366	2.63246340177	0
19	37514	2.64246340177	0
19	37658	2.65246340177	0
19	37794	2.66246340177	0
19	37942	2.67246340177	0
19	38087	2.68246340177	0
19	38224	2.69246340177	0
19	38372	2.70246340177	0
19	38515	2.71246340177	0
19	38650	2.72246340177	0
19	38797	2.73246340177	0
19	38944	2.74246340177	0
19	39080	2.75246340177	0
19	39226	2.76246340177	0
19	39370	2.77246340177	0
19	39506	2.78246340177	0
19	39653	2.79246340177	0
19	39797	2.80246340177	0
19	39933	2.81246340177	0
19	40080	2.82246340177	0
19	40227	2.83246340177	0
19	40362	2.84246340177	0
19	40510	2.85246340177	0
19	40654	2.86246340177	0
19	40791	2.87246340177	0
19	40939	2.88246340177	0
19	41085	2.89246340177	0
19	41221	2.90246340177	0
19	41368	2.91246340177	0
19	41511	2.92246340177	0
19	41648	2.93246340177	0
19	41795	2.94246340177	0
19	41939	2.95246340177	0
19	42077	2.96246340177	0
19	42225	2.97246340177	0
19	42368	2.98246340177	0
19	42505	2.99246340177	0
20	0	1	0
20	0	1	0
20	0	1	0
20	0	1	0
20	0	1	0
21	0	1	0
21	0	1	0
21	0	1	0
21	0	1	0
21	0	1	0
22	0	1	0
23	0	1	0
24	0	1	0
25	0	1	0
25	0	1	0
25	0	1	0
25	0	1	0
25	0	1	0
26	0	1	0
26	0	1	0
26	0	1	0
26	0	1	0
26	0	1	0
27	0	1	0
27	0	1	0
27	0	1	0
27	0	1	0
27	0	1	0
28	0	1	0
28	0	1	0
28	0	1	0
28	0	1	0
28	0	1	0
29	0	1	0
29	14085	1.00246430857	1
29	14220	1.01246430857	2
29	14367	1.02246430857	3
29	14511	1.03246430857	4
29	14650	1.04246430857	5
29	14799	1.05246430857	6
29	14944	1.06246430857	7
29	15081	1.07246430857	8
29	15228	1.08246430857	9
29	15372	1.09246430857	10
29	15508	1.10246430857	11
29	15656	1.11246430857	12
29	15800	1.12246430857	13
29	15936	1.13246430857	14
29	16085	1.14246430857	15
29	16230	1.15246430857	16
29	16365	1.16246430857	17
29	16512	1.17246430857	18
29	16658	1.18246430857	19
29	16794	1.19246430857	20
29	16942	1.20246430857	21
29	17086	1.21246430857	22
29	17223	1.22246430857	23
29	17375	1.23246430857	24
29	17519	1.24246430857	25
29	17655	1.25246430857	26
29	17802	1.26246430857	27
29	17945	1.27246430857	28
29	18081	1.28246430857	29
29	18229	1.29246430857	30
29	18374	1.30246430857	31
29	18510	1.31246430857	32
29	18658	1.32246430857	33
29	18803	1.33246430857	34
29	18938	1.34246430857	35
29	19086	1.35246430857	36
29	19231	1.36246430857	37
29	19368	1.37246430857	38
29	19518	1.38246430857	39
29	19661	1.39246430857	40
29	19797	1.40246430857	41
29	19944	1.41246430857	42
29	20087	1.42246430857	43
29	20222	1.43246430857	44
29	20371	1.44246430857	45
29	20515	1.45246430857	46
29	20652	1.46246430857	47
29	20799	1.47246430857	48
29	20944	1.48246430857	49
29	21082	1.49246430857	50
29	21230	1.50246430857	51
29	21375	1.51246430857	52
29	21513	1.52246430857	53
29	21660	1.53246430857	54
29	21805	1.54246430857	55
29	21940	1.55246430857	56
29	22090	1.56246430857	57
29	22235	1.57246430857	58
[...]
137	133326	9.353	0
137	133619	9.373	0
137	133713	9.381	0
137	133719	9.382	0
137	133754	9.383	0
137	134009	9.402	0
137	134140	9.411	0
137	134146	9.412	0
137	134181	9.413	0
137	134204	9.414	0
137	134217	9.415	0
137	134436	9.432	0
137	134472	9.433	0
137	134498	9.435	0
137	134557	9.44	0
137	134565	9.441	0
137	134571	9.442	0
137	134606	9.443	0
137	134862	9.462	0
137	134898	9.463	0
137	134924	9.465	0
137	134983	9.47	0
137	134991	9.471	0
137	134997	9.472	0
137	135032	9.473	0
137	135055	9.474	0
137	135109	9.479	0
137	135324	9.493	0
137	135350	9.495	0
137	135409	9.5	0
137	135417	9.501	1
137	135423	9.502	1
137	135458	9.503	0
137	135494	9.505	0
137	135512	9.507	0
137	135521	9.508	0
137	135537	9.509	0
137	135557	9.51	0
137	135564	9.511	0
137	136277	9.561	1
137	136283	9.562	0
137	136318	9.563	0
137	136373	9.567	0
137	136381	9.568	0
137	136397	9.569	0
137	136416	9.57	0
137	136610	9.583	0
137	136636	9.585	0
137	136695	9.59	0
137	136703	9.591	0
137	136709	9.592	0
137	136744	9.593	1
137	136767	9.594	0
137	136822	9.599	0
137	136841	9.6	0
137	137036	9.613	0
137	137138	9.622	0
137	137173	9.623	0
137	137196	9.624	1
137	137271	9.63	0
137	137429	9.642	0
137	137465	9.643	0
137	137491	9.645	0
137	137550	9.65	0
137	137558	9.651	0
137	137564	9.652	1
137	137599	9.653	0
137	137661	9.658	0
137	137677	9.659	0
137	137696	9.66	0
137	137891	9.673	0
137	137977	9.68	0
137	137985	9.681	0
137	137991	9.682	0
137	138026	9.683	0
137	138321	9.703	0
137	138347	9.705	0
137	138422	9.712	0
137	138457	9.713	0
137	138493	9.715	1
137	138562	9.721	0
137	138847	9.741	0
137	138853	9.742	0
137	138888	9.743	1
137	138966	9.749	0
137	138985	9.75	0
137	139179	9.763	0
137	139205	9.765	0
137	139273	9.771	0
137	139279	9.772	0
137	139314	9.773	0
137	139375	9.778	0
137	139570	9.792	0
137	139607	9.793	0
137	139633	9.795	0
137	139692	9.8	0
137	139700	9.801	0
137	139706	9.802	0
137	139741	9.803	0
137	139794	9.807	0
137	139996	9.822	0
137	140032	9.823	0
137	140169	9.833	0
137	140214	9.836	1
137	140279	9.842	0
137	140462	9.853	0
137	140488	9.855	1
137	140547	9.86	1
137	140556	9.861	0
137	140562	9.862	0
137	140597	9.863	0
137	140644	9.866	0
137	140652	9.867	0
137	140660	9.868	0
137	140676	9.869	0
137	140695	9.87	0
137	140891	9.883	0
137	140986	9.891	0
137	140992	9.892	0
137	141027	9.893	0
137	141050	9.894	0
137	141421	9.922	0
137	141456	9.923	0
137	141749	9.943	0
137	141844	9.951	0
137	141850	9.952	1
137	141885	9.953	0
137	141983	9.96	0
137	141991	9.961	0
137	142341	9.984	0
137	142354	9.985	0
138	44698	3.145	2
138	45563	3.206	2
138	45571	3.207	2
138	45992	3.236	2
138	47292	3.328	2
138	47308	3.329	2
138	47680	3.354	2
138	47693	3.355	2
138	48108	3.384	2
138	48138	3.387	2
138	48182	3.39	6
138	48563	3.417	2
138	50271	3.536	2
138	50303	3.539	2
138	51138	3.597	2
138	52831	3.715	2
138	53246	3.744	2
138	53259	3.745	2
138	56677	3.984	2
138	57556	4.046	2
138	57588	4.049	2
138	57974	4.075	2
138	58411	4.106	2
138	58815	4.134	2
138	58828	4.135	2
138	59702	4.197	2
138	60116	4.225	2
138	60133	4.227	2
138	60141	4.228	2
138	60962	4.284	2
138	61840	4.346	2
138	64426	4.527	2
138	66560	4.676	2
138	66981	4.705	2
138	67006	4.708	2
138	67822	4.764	2
138	68288	4.798	2
138	71239	5.004	2
138	71252	5.005	2
138	72548	5.095	2
138	72557	5.096	2
138	73822	5.184	2
138	75110	5.274	2
138	75123	5.275	2
138	76409	5.365	2
138	77288	5.428	2
138	78108	5.484	2
138	80268	5.635	2
138	80277	5.636	2
138	80285	5.637	2
138	80342	5.642	6
138	81124	5.695	2
138	81575	5.728	2
138	81977	5.755	2
138	81994	5.757	2
138	82018	5.759	2
138	82837	5.816	2
138	84116	5.905	2
138	86247	6.054	2
138	88833	6.236	2
138	89678	6.295	2
138	90535	6.355	2
138	90989	6.388	2
138	91391	6.415	2
138	92252	6.475	2
138	93109	6.535	2
138	93536	6.565	2
138	94392	6.625	2
138	94809	6.654	2
138	96146	6.749	2
138	98686	6.927	2
138	99958	7.015	2
138	100805	7.074	2
138	101694	7.137	2
138	102129	7.168	2
138	103375	7.254	2
138	103397	7.256	2
138	103430	7.259	2
138	103463	7.262	6
138	103818	7.285	2
138	104244	7.315	2
138	104689	7.347	2
138	107239	7.525	2
138	107280	7.529	2
138	107652	7.554	2
138	108099	7.586	2
138	110229	7.735	2
138	116215	8.154	2
138	117523	8.246	2
138	117589	8.252	6
138	118787	8.334	2
138	118817	8.337	2
138	118862	8.34	6
138	120929	8.484	2
138	120967	8.488	2
138	121356	8.514	2
138	124386	8.727	2
138	126100	8.848	2
138	129485	9.084	2
138	129929	9.115	2
138	130791	9.175	2
138	132493	9.294	2
138	132949	9.327	2
138	133043	9.333	6
138	133122	9.339	6
138	134652	9.446	2
138	135077	9.476	2
138	135912	9.534	2
138	135934	9.536	2
138	135994	9.541	6
138	136341	9.564	2
138	140192	9.834	2
138	141072	9.896	2
139	44698	3.145	0
139	45563	3.206	0
139	45571	3.207	0
139	45992	3.236	0
139	47292	3.328	0
139	47308	3.329	0
139	47680	3.354	0
139	47693	3.355	0
139	48108	3.384	1
139	48138	3.387	0
139	48182	3.39	0
139	48563	3.417	0
139	50271	3.536	0
139	50303	3.539	0
139	51138	3.597	0
139	52831	3.715	0
139	53246	3.744	0
139	53259	3.745	0
139	56677	3.984	0
139	57556	4.046	0
139	57588	4.049	0
139	57974	4.075	0
139	58411	4.106	0
139	58815	4.134	0
139	58828	4.135	0
139	59702	4.197	0
139	60116	4.225	0
139	60133	4.227	0
139	60141	4.228	0
139	60962	4.284	0
139	61840	4.346	0
139	64426	4.527	0
139	66560	4.676	0
139	66981	4.705	0
139	67006	4.708	0
139	67822	4.764	0
139	68288	4.798	0
139	71239	5.004	0
139	71252	5.005	0
139	72548	5.095	0
139	72557	5.096	0
139	73822	5.184	0
139	75110	5.274	0
139	75123	5.275	0
139	76409	5.365	0
139	77288	5.428	0
139	78108	5.484	0
139	80268	5.635	0
139	80277	5.636	1
139	80285	5.637	0
139	80342	5.642	0
139	81124	5.695	0
139	81575	5.728	0
139	81977	5.755	0
139	81994	5.757	0
139	82018	5.759	0
139	82837	5.816	0
139	84116	5.905	0
139	86247	6.054	0
139	88833	6.236	0
139	89678	6.295	0
139	90535	6.355	0
139	90989	6.388	0
139	91391	6.415	0
139	92252	6.475	0
139	93109	6.535	0
139	93536	6.565	0
139	94392	6.625	0
139	94809	6.654	0
139	96146	6.749	0
139	98686	6.927	0
139	99958	7.015	0
139	100805	7.074	0
139	101694	7.137	0
139	102129	7.168	0
139	103375	7.254	0
139	103397	7.256	1
139	103430	7.259	0
139	103463	7.262	0
139	103818	7.285	0
139	104244	7.315	0
139	104689	7.347	0
139	107239	7.525	0
139	107280	7.529	0
139	107652	7.554	0
139	108099	7.586	0
139	110229	7.735	0
139	116215	8.154	0
139	117523	8.246	1
139	117589	8.252	0
139	118787	8.334	1
139	118817	8.337	0
139	118862	8.34	0
139	120929	8.484	0
139	120967	8.488	0
139	121356	8.514	0
139	124386	8.727	0
139	126100	8.848	0
139	129485	9.084	0
139	129929	9.115	0
139	130791	9.175	0
139	132493	9.294	0
139	132949	9.327	1
139	133043	9.333	1
139	133122	9.339	0
139	134652	9.446	0
139	135077	9.476	0
139	135912	9.534	1
139	135934	9.536	0
139	135994	9.541	0
139	136341	9.564	0
139	140192	9.834	0
139	141072	9.896	0
140	44294	3.118	2
140	44392	3.124	8
140	45476	3.201	8
140	48162	3.389	2
140	50674	3.564	2
140	51146	3.598	2
140	56264	3.955	2
140	56690	3.985	2
140	63107	4.434	2
140	63181	4.44	8
140	63276	4.446	8
140	69546	4.885	2
140	69555	4.886	2
140	69959	4.914	2
140	72535	5.094	2
140	73431	5.158	2
140	75578	5.308	2
140	76836	5.395	2
140	76853	5.397	2
140	77186	5.421	8
140	77676	5.454	2
140	77751	5.46	8
140	80255	5.634	2
140	81900	5.751	8
140	82428	5.788	2
140	83254	5.845	2
140	83322	5.851	8
140	83418	5.857	8
140	84973	5.965	2
140	86703	6.087	2
140	87100	6.114	2
140	90553	6.357	2
140	90973	6.386	2
140	93119	6.536	2
140	93887	6.591	8
140	94409	6.627	2
140	94504	6.633	8
140	97387	6.835	2
140	98678	6.926	2
140	104231	7.314	2
140	104253	7.316	2
140	106798	7.494	2
140	108115	7.588	2
140	110238	7.736	2
140	110659	7.765	2
140	112796	7.915	2
140	115367	8.095	2
140	118800	8.335	2
140	120865	8.481	8
140	126513	8.876	2
140	129938	9.116	2
140	134660	9.447	2
140	134754	9.453	8
140	138480	9.714	2
140	138554	9.72	8
140	140205	9.835	2
140	140222	9.837	2
140	140620	9.864	2
141	44294	3.118	1
141	44392	3.124	0
141	45476	3.201	0
141	48162	3.389	0
141	50674	3.564	0
141	51146	3.598	0
141	56264	3.955	0
141	56690	3.985	0
141	63107	4.434	1
141	63181	4.44	1
141	63276	4.446	0
141	69546	4.885	0
141	69555	4.886	0
141	69959	4.914	0
141	72535	5.094	0
141	73431	5.158	0
141	75578	5.308	0
141	76836	5.395	0
141	76853	5.397	0
141	77186	5.421	0
141	77676	5.454	1
141	77751	5.46	0
141	80255	5.634	0
141	81900	5.751	0
141	82428	5.788	0
141	83254	5.845	1
141	83322	5.851	1
141	83418	5.857	0
141	84973	5.965	0
141	86703	6.087	0
141	87100	6.114	0
141	90553	6.357	0
141	90973	6.386	0
141	93119	6.536	0
141	93887	6.591	0
141	94409	6.627	1
141	94504	6.633	0
141	97387	6.835	0
141	98678	6.926	0
141	104231	7.314	0
141	104253	7.316	0
141	106798	7.494	0
141	108115	7.588	0
141	110238	7.736	0
141	110659	7.765	0
141	112796	7.915	0
141	115367	8.095	0
141	118800	8.335	0
141	120865	8.481	0
141	126513	8.876	0
141	129938	9.116	0
141	134660	9.447	1
141	134754	9.453	0
141	138480	9.714	1
141	138554	9.72	0
141	140205	9.835	0
141	140222	9.837	0
141	140620	9.864	0
142	43009	3.028	2
142	43411	3.055	2
142	44685	3.144	2
142	44740	3.149	2
142	45541	3.204	2
142	46024	3.239	2
142	46841	3.295	2
142	46850	3.296	2
142	47267	3.325	2
142	48121	3.385	2
142	48146	3.388	2
142	48533	3.414	2
142	48546	3.415	2
142	48555	3.416	2
142	48997	3.448	2
142	49097	3.454	8
142	49387	3.474	2
142	49470	3.481	8
142	49860	3.508	2
142	50248	3.534	2
142	50261	3.535	2
142	50287	3.538	2
142	54544	3.835	2
142	57136	4.017	2
142	58402	4.105	2
142	58837	4.136	2
142	58853	4.138	2
142	58953	4.144	8
142	60103	4.224	2
142	60177	4.23	8
142	63145	4.438	2
142	63979	4.495	2
142	64396	4.524	2
142	65706	4.617	2
142	66551	4.675	2
142	66576	4.678	2
142	66592	4.679	2
142	66674	4.684	8
142	67394	4.734	2
142	67416	4.736	2
142	68280	4.797	2
142	69135	4.857	2
142	69587	4.889	2
142	70421	4.948	2
142	70832	4.976	2
142	70840	4.977	2
142	70935	4.983	8
142	71261	5.006	2
142	72115	5.065	2
142	76845	5.396	2
142	77272	5.426	2
142	77698	5.456	2
142	79021	5.549	2
142	79837	5.605	2
142	80713	5.667	2
142	80721	5.668	2
142	81567	5.727	2
142	83241	5.844	2
142	84133	5.907	2
142	85847	6.027	2
142	86711	6.088	2
142	87527	6.144	2
142	88385	6.204	2
142	88849	6.238	2
142	90123	6.327	2
142	90545	6.356	2
142	91378	6.414	2
142	91810	6.444	2
142	93546	6.566	2
142	95236	6.684	2
142	95249	6.685	2
142	95717	6.719	2
142	95812	6.725	8
142	96114	6.746	2
142	96530	6.775	2
142	96975	6.807	2
142	97374	6.834	2
142	97412	6.838	2
142	98231	6.894	2
142	98669	6.925	2
142	98694	6.928	2
142	100827	7.076	2
142	103388	7.255	2
142	103414	7.258	2
142	103805	7.284	2
142	103827	7.286	2
142	104261	7.317	2
142	105126	7.378	2
142	105957	7.435	2
142	105974	7.437	2
142	106424	7.469	2
142	107226	7.524	2
142	107682	7.557	2
142	108090	7.585	2
142	108131	7.589	2
142	108225	7.595	8
142	108504	7.614	2
142	111074	7.794	2
142	114099	8.007	2
142	114123	8.009	2
142	116237	8.156	2
142	117531	8.247	2
142	118360	8.304	2
142	119226	8.365	2
142	119653	8.395	2
142	120105	8.428	2
142	121378	8.516	2
142	121395	8.518	2
142	122653	8.605	2
142	124378	8.726	2
142	126075	8.845	2
142	126084	8.846	2
142	126092	8.847	2
142	126545	8.879	2
142	130347	9.144	2
142	132117	9.269	2
142	132506	9.295	2
142	132932	9.325	2
142	132941	9.326	2
142	134226	9.416	2
142	134642	9.445	2
142	135093	9.478	2
142	135191	9.484	8
142	135481	9.504	2
142	135564	9.511	8
142	135925	9.535	2
142	136780	9.595	2
142	136849	9.601	8
142	137209	9.625	2
142	137622	9.654	2
142	137652	9.657	2
142	137747	9.663	8
142	138510	9.717	2
142	138911	9.744	2
142	138924	9.745	2
142	138941	9.747	2
142	139350	9.775	2
142	139764	9.804	2
142	139786	9.806	2
142	139802	9.808	2
142	139818	9.809	2
142	140633	9.865	2
142	142379	9.988	2
142	142395	9.989	2
143	43009	3.028	0
143	43411	3.055	0
143	44685	3.144	0
143	44740	3.149	0
143	45541	3.204	0
143	46024	3.239	0
143	46841	3.295	0
143	46850	3.296	0
143	47267	3.325	0
143	48121	3.385	0
143	48146	3.388	0
143	48533	3.414	0
143	48546	3.415	0
143	48555	3.416	0
143	48997	3.448	1
143	49097	3.454	0
143	49387	3.474	1
143	49470	3.481	0
143	49860	3.508	0
143	50248	3.534	0
143	50261	3.535	0
143	50287	3.538	0
143	54544	3.835	0
143	57136	4.017	0
143	58402	4.105	0
143	58837	4.136	0
143	58853	4.138	1
143	58953	4.144	0
143	60103	4.224	1
143	60177	4.23	0
143	63145	4.438	0
143	63979	4.495	0
143	64396	4.524	0
143	65706	4.617	0
143	66551	4.675	0
143	66576	4.678	1
143	66592	4.679	0
143	66674	4.684	0
143	67394	4.734	0
143	67416	4.736	0
143	68280	4.797	0
143	69135	4.857	0
143	69587	4.889	0
143	70421	4.948	0
143	70832	4.976	0
143	70840	4.977	1
143	70935	4.983	0
143	71261	5.006	0
143	72115	5.065	0
143	76845	5.396	0
143	77272	5.426	0
143	77698	5.456	0
143	79021	5.549	0
143	79837	5.605	0
143	80713	5.667	0
143	80721	5.668	0
143	81567	5.727	0
143	83241	5.844	0
143	84133	5.907	0
143	85847	6.027	0
143	86711	6.088	0
143	87527	6.144	0
143	88385	6.204	0
143	88849	6.238	0
143	90123	6.327	0
143	90545	6.356	0
143	91378	6.414	0
143	91810	6.444	0
143	93546	6.566	0
143	95236	6.684	0
143	95249	6.685	0
143	95717	6.719	1
143	95812	6.725	0
143	96114	6.746	0
143	96530	6.775	0
143	96975	6.807	0
143	97374	6.834	0
143	97412	6.838	0
143	98231	6.894	0
143	98669	6.925	0
143	98694	6.928	0
143	100827	7.076	0
143	103388	7.255	0
143	103414	7.258	0
143	103805	7.284	0
143	103827	7.286	0
143	104261	7.317	0
143	105126	7.378	0
143	105957	7.435	0
143	105974	7.437	0
143	106424	7.469	0
143	107226	7.524	0
143	107682	7.557	0
143	108090	7.585	0
143	108131	7.589	1
143	108225	7.595	0
143	108504	7.614	0
143	111074	7.794	0
143	114099	8.007	0
143	114123	8.009	0
143	116237	8.156	0
143	117531	8.247	0
143	118360	8.304	0
143	119226	8.365	0
143	119653	8.395	0
143	120105	8.428	0
143	121378	8.516	0
143	121395	8.518	0
143	122653	8.605	0
143	124378	8.726	0
143	126075	8.845	0
143	126084	8.846	0
143	126092	8.847	0
143	126545	8.879	0
143	130347	9.144	0
143	132117	9.269	0
143	132506	9.295	0
143	132932	9.325	0
143	132941	9.326	0
143	134226	9.416	0
143	134642	9.445	0
143	135093	9.478	1
143	135191	9.484	0
143	135481	9.504	1
143	135564	9.511	0
143	135925	9.535	0
143	136780	9.595	1
143	136849	9.601	0
143	137209	9.625	0
143	137622	9.654	0
143	137652	9.657	1
143	137747	9.663	0
143	138510	9.717	0
143	138911	9.744	0
143	138924	9.745	0
143	138941	9.747	0
143	139350	9.775	0
143	139764	9.804	0
143	139786	9.806	0
143	139802	9.808	0
143	139818	9.809	0
143	140633	9.865	0
143	142379	9.988	0
143	142395	9.989	0
144	42984	3.025	2
144	44256	3.114	2
144	49835	3.505	2
144	57106	4.014	2
144	57144	4.018	2
144	59685	4.195	2
144	63988	4.496	2
144	64823	4.554	2
144	64898	4.56	6
144	65250	4.584	2
144	65698	4.616	2
144	70396	4.945	2
144	70413	4.947	2
144	70810	4.974	2
144	72565	5.097	2
144	73835	5.185	2
144	75538	5.304	2
144	76418	5.366	2
144	77706	5.457	2
144	81111	5.694	2
144	81550	5.725	2
144	81591	5.729	2
144	82412	5.786	2
144	84103	5.904	2
144	85830	6.025	2
144	86673	6.084	2
144	86695	6.086	2
144	87540	6.145	2
144	88415	6.207	2
144	88439	6.209	2
144	90106	6.325	2
144	90981	6.387	2
144	93096	6.534	2
144	93951	6.594	2
144	94831	6.656	2
144	94839	6.657	2
144	96105	6.745	2
144	99983	7.018	2
144	102091	7.164	2
144	102121	7.167	2
144	104658	7.344	2
144	105998	7.439	2
144	107248	7.526	2
144	107256	7.527	2
144	107665	7.555	2
144	108077	7.584	2
144	111096	7.796	2
144	111104	7.797	2
144	112821	7.918	2
144	112837	7.919	2
144	114069	8.004	2
144	117501	8.244	2
144	123510	8.665	2
144	124410	8.729	2
144	124782	8.754	2
144	125222	8.785	2
144	125649	8.815	2
144	127345	8.934	2
144	128212	8.995	2
144	128221	8.996	2
144	131204	9.204	2
144	131217	9.205	2
144	132093	9.267	2
144	132188	9.273	6
144	133349	9.354	2
144	133423	9.36	6
144	137235	9.628	2
145	42984	3.025	0
145	44256	3.114	0
145	49835	3.505	0
145	57106	4.014	0
145	57144	4.018	0
145	59685	4.195	0
145	63988	4.496	0
145	64823	4.554	1
145	64898	4.56	0
145	65250	4.584	0
145	65698	4.616	0
145	70396	4.945	0
145	70413	4.947	0
145	70810	4.974	0
145	72565	5.097	0
145	73835	5.185	0
145	75538	5.304	0
145	76418	5.366	0
145	77706	5.457	0
145	81111	5.694	0
145	81550	5.725	0
145	81591	5.729	0
145	82412	5.786	0
145	84103	5.904	0
145	85830	6.025	0
145	86673	6.084	0
145	86695	6.086	0
145	87540	6.145	0
145	88415	6.207	0
145	88439	6.209	0
145	90106	6.325	0
145	90981	6.387	0
145	93096	6.534	0
145	93951	6.594	0
145	94831	6.656	0
145	94839	6.657	0
145	96105	6.745	0
145	99983	7.018	0
145	102091	7.164	0
145	102121	7.167	0
145	104658	7.344	0
145	105998	7.439	0
145	107248	7.526	0
145	107256	7.527	0
145	107665	7.555	0
145	108077	7.584	0
145	111096	7.796	0
145	111104	7.797	0
145	112821	7.918	0
145	112837	7.919	0
145	114069	8.004	0
145	117501	8.244	0
145	123510	8.665	0
145	124410	8.729	0
145	124782	8.754	0
145	125222	8.785	0
145	125649	8.815	0
145	127345	8.934	0
145	128212	8.995	0
145	128221	8.996	0
145	131204	9.204	0
145	131217	9.205	0
145	132093	9.267	1
145	132188	9.273	0
145	133349	9.354	1
145	133423	9.36	0
145	137235	9.628	0
146	42971	3.024	2
146	44269	3.115	2
146	45554	3.205	2
146	45623	3.211	8
146	51565	3.627	2
146	51659	3.633	8
146	51961	3.654	2
146	52388	3.684	2
146	52818	3.714	2
146	56251	3.954	2
146	57572	4.048	2
146	57961	4.074	2
146	58389	4.104	2
146	58463	4.11	8
146	59255	4.165	2
146	63129	4.436	2
146	63548	4.465	2
146	63618	4.471	8
146	63713	4.477	8
146	64409	4.525	2
146	65689	4.615	2
146	66538	4.674	2
146	68263	4.795	2
146	69118	4.855	2
146	70823	4.975	2
146	70891	4.981	8
146	71685	5.035	2
146	71694	5.036	2
146	74252	5.214	2
146	75551	5.305	2
146	75969	5.334	2
146	76396	5.364	2
146	77304	5.429	2
146	78989	5.546	2
146	79005	5.548	2
146	79824	5.604	2
146	81133	5.696	2
146	81986	5.756	2
146	82815	5.814	2
146	83271	5.847	2
146	85871	6.029	2
146	86260	6.055	2
146	91005	6.389	2
146	92683	6.505	2
146	93523	6.564	2
146	93973	6.596	2
146	94038	6.602	8
146	94417	6.628	2
146	94822	6.655	2
146	95693	6.717	2
146	97404	6.837	2
146	97498	6.843	8
146	99967	7.016	2
146	101248	7.105	2
146	102113	7.166	2
146	103741	7.281	8
146	103836	7.287	2
146	103844	7.288	2
146	103860	7.289	2
146	103879	7.29	8
146	103930	7.293	8
146	105515	7.404	2
146	110646	7.764	2
146	111128	7.799	2
146	115354	8.094	2
146	117931	8.274	2
146	119213	8.364	2
146	120080	8.425	2
146	120097	8.427	2
146	122213	8.574	2
146	122243	8.577	2
146	122287	8.58	8
146	125239	8.787	2
146	125263	8.789	2
146	126491	8.874	2
146	126504	8.875	2
146	126918	8.904	2
146	127358	8.935	2
146	128229	8.997	2
146	129498	9.085	2
146	131258	9.209	2
146	132076	9.265	2
146	132144	9.271	8
146	132547	9.299	2
146	133371	9.356	2
146	134629	9.444	2
146	135068	9.475	2
146	135503	9.506	2
146	136354	9.565	2
146	136789	9.596	2
146	137635	9.655	2
146	139391	9.779	2
146	139485	9.785	8
146	140556	9.861	8
147	42971	3.024	0
147	44269	3.115	0
147	45554	3.205	1
147	45623	3.211	0
147	51565	3.627	1
147	51659	3.633	0
147	51961	3.654	0
147	52388	3.684	0
147	52818	3.714	0
147	56251	3.954	0
147	57572	4.048	0
147	57961	4.074	0
147	58389	4.104	1
147	58463	4.11	0
147	59255	4.165	0
147	63129	4.436	0
147	63548	4.465	1
147	63618	4.471	1
147	63713	4.477	0
147	64409	4.525	0
147	65689	4.615	0
147	66538	4.674	0
147	68263	4.795	0
147	69118	4.855	0
147	70823	4.975	1
147	70891	4.981	0
147	71685	5.035	0
147	71694	5.036	0
147	74252	5.214	0
147	75551	5.305	0
147	75969	5.334	0
147	76396	5.364	0
147	77304	5.429	0
147	78989	5.546	0
147	79005	5.548	0
147	79824	5.604	0
147	81133	5.696	0
147	81986	5.756	0
147	82815	5.814	0
147	83271	5.847	0
147	85871	6.029	0
147	86260	6.055	0
147	91005	6.389	0
147	92683	6.505	0
147	93523	6.564	0
147	93973	6.596	1
147	94038	6.602	0
147	94417	6.628	0
147	94822	6.655	0
147	95693	6.717	0
147	97404	6.837	1
147	97498	6.843	0
147	99967	7.016	0
147	101248	7.105	0
147	102113	7.166	0
147	103741	7.281	1
147	103836	7.287	1
147	103844	7.288	0
147	103860	7.289	0
147	103879	7.29	0
147	103930	7.293	0
147	105515	7.404	0
147	110646	7.764	0
147	111128	7.799	0
147	115354	8.094	0
147	117931	8.274	0
147	119213	8.364	0
147	120080	8.425	0
147	120097	8.427	0
147	122213	8.574	1
147	122243	8.577	0
147	122287	8.58	0
147	125239	8.787	0
147	125263	8.789	0
147	126491	8.874	0
147	126504	8.875	0
147	126918	8.904	0
147	127358	8.935	0
147	128229	8.997	0
147	129498	9.085	0
147	131258	9.209	0
147	132076	9.265	1
147	132144	9.271	0
147	132547	9.299	0
147	133371	9.356	0
147	134629	9.444	0
147	135068	9.475	0
147	135503	9.506	0
147	136354	9.565	0
147	136789	9.596	0
147	137635	9.655	0
147	139391	9.779	1
147	139485	9.785	0
147	140556	9.861	0
148	142556	10	100000

