file 54226940 1718189399                                        
version 3
run CarrierAggregation-4-20240612-12:47:27-33184
attr configname CarrierAggregation
attr datetime 20240612-12:47:27
attr datetimef 20240612-124727
attr experiment CarrierAggregation
attr inifile omnetpp.ini
attr iterationvars $numUes=20
attr iterationvarsd numUes=20
attr iterationvarsf numUes=20-
attr measurement $numUes=20
attr network simu5g.simulations.NR.networks.SingleCell_Standalone
attr processid 33184
attr repetition 0
attr replication #0
attr resultdir results
attr runnumber 4
attr seedset 0
itervar numUes 20
config image-path ../../../images;../../../../INET4.5/images
config extends Multiple-UEs
config *.carrierAggregation.numComponentCarriers 2
config *.carrierAggregation.componentCarrier[0].carrierFrequency 2GHz
config *.carrierAggregation.componentCarrier[0].numBands 6
config *.carrierAggregation.componentCarrier[1].carrierFrequency 6GHz
config *.carrierAggregation.componentCarrier[1].numBands 6
config *.gnb.cellularNic.numCarriers 2
config *.gnb.cellularNic.channelModel[0].componentCarrierIndex 0
config *.gnb.cellularNic.channelModel[1].componentCarrierIndex 1
config *.ue[*].cellularNic.numNRCarriers 2
config *.ue[*].cellularNic.nrChannelModel[0].componentCarrierIndex 0
config *.ue[*].cellularNic.nrChannelModel[1].componentCarrierIndex 1
config *.numBgCells 2
config *.bgCell[0].bgScheduler.carrierFrequency 2GHz
config *.bgCell[0].bgScheduler.numBands 6
config *.bgCell[1].bgScheduler.carrierFrequency 6GHz
config *.bgCell[1].bgScheduler.numBands 6
config *.bgCell[*].bgScheduler.txPower 23
config extends BgTraffic
config *.numUe 20
config *.ue[*].mobility.initialX uniform(0m,1000m)
config *.ue[*].mobility.initialY uniform(0m,1000m)
config *.server.numApps 20
config output-scalar-file results/CarrierAggregation/$numUes=20-0.sca
config output-vector-file results/CarrierAggregation/$numUes=20-0.vec
config extends Single-UE
config *.numBgCells 1
config *.bgCell[*].bgScheduler.isNr true
config *.bgCell[*].bgScheduler.txPower 23
config *.bgCell[*].mobility.initialX 750m
config *.bgCell[*].mobility.initialY 1000m
config *.bgCell[*].bgTrafficGenerator.numBgUes 10
config *.bgCell[*].bgTrafficGenerator.bgUE[*].mobility.initialX uniform(500m,1000m)
config *.bgCell[*].bgTrafficGenerator.bgUE[*].mobility.initialY uniform(500m,1000m)
config *.bgCell[*].bgTrafficGenerator.bgUE[*].trafficGeneratorType "\"TrafficGeneratorCbr\""
config *.bgCell[*].bgTrafficGenerator.bgUE[*].generator.startTimeDl uniform(0s,0.05s)
config *.bgCell[*].bgTrafficGenerator.bgUE[*].generator.packetSizeDl 1000B
config *.bgCell[*].bgTrafficGenerator.bgUE[*].generator.periodDl 0.01s
config *.gnb.mobility.initialX 500m
config *.gnb.mobility.initialY 500m
config *.numUe 1
config *.ue[*].mobility.initialX 500m
config *.ue[*].mobility.initialY 900m
config *.ue[*].macCellId 0
config *.ue[*].masterId 0
config *.ue[*].nrMacCellId 1
config *.ue[*].nrMasterId 1
config *.ue[*].numApps 1
config *.server.numApps 1
config *.ue[*].app[*].typename CbrReceiver
config *.ue[*].app[*].localPort 1000
config *.server.app[*].typename CbrSender
config *.server.app[*].PacketSize 1000
config *.server.app[*].sampling_time 0.01s
config *.server.app[*].destAddress "\"ue[\"+string(ancestorIndex(0))+\"]\""
config *.server.app[*].destPort 1000
config *.server.app[*].localPort 3088+ancestorIndex(0)
config *.server.app[*].startTime uniform(0.01s,0.05s)
config output-scalar-file-append false
config network simu5g.simulations.NR.networks.SingleCell_Standalone
config sim-time-limit 10s
config warmup-period 1s
config seed-set 0
config output-scalar-file results/CarrierAggregation/0.sca
config output-vector-file results/CarrierAggregation/0.vec
config **.routingRecorder.enabled false
config **.amcType "\"NRAmc\""
config **.targetBler 0.01
config **.blerShift 5
config *.configurator.config "xmldoc(\"./demo.xml\")"
config **.mobility.constraintAreaMaxX 1000m
config **.mobility.constraintAreaMaxY 1000m
config **.mobility.constraintAreaMinX 0m
config **.mobility.constraintAreaMinY 0m
config **.mobility.constraintAreaMinZ 0m
config **.mobility.constraintAreaMaxZ 0m
config **.mobility.initFromDisplayString false

vector 0 SingleCell_Standalone.server.ppp[0].queue queueLength:vector ETV
attr autoWarmupFilter false
attr interpolationmode sample-hold
attr recordingmode vector
attr source "warmup(atomic(constant0(packetPushEnded) + count(packetPushStarted) - count(packetPulled) - count(packetRemoved) - count(packetDropped)))"
attr title "queue length"
attr unit pk
vector 1 SingleCell_Standalone.server.ppp[0].queue queueBitLength:vector ETV
attr autoWarmupFilter false
attr interpolationmode sample-hold
attr recordingmode vector
attr source "warmup(atomic(constant0(packetPushEnded) + sum(packetLength(packetPushStarted)) - sum(packetLength(packetPulled)) - sum(packetLength(packetRemoved)) - sum(packetLength(packetDropped))))"
attr title "queue bit length"
attr unit b
vector 2 SingleCell_Standalone.server.udp passedUpPk:vector(count) ETV
attr interpolationmode none
attr recordingmode vector(count)
attr source packetSentToUpper
attr title "packets passed up, count"
vector 3 SingleCell_Standalone.server.udp droppedPkWrongPort:vector(count) ETV
attr interpolationmode none
attr recordingmode vector(count)
attr source packetDropReasonIsNoPortFound(packetDropped)
attr title "packets dropped (wrong port), count"
vector 4 SingleCell_Standalone.server.udp droppedPkBadChecksum:vector(count) ETV
attr interpolationmode none
attr recordingmode vector(count)
attr source packetDropReasonIsIncorrectlyReceived(packetDropped)
attr title "packets dropped (checksum error), count"
vector 5 SingleCell_Standalone.router.ppp[0].queue queueLength:vector ETV
attr autoWarmupFilter false
attr interpolationmode sample-hold
attr recordingmode vector
attr source "warmup(atomic(constant0(packetPushEnded) + count(packetPushStarted) - count(packetPulled) - count(packetRemoved) - count(packetDropped)))"
attr title "queue length"
attr unit pk
vector 6 SingleCell_Standalone.router.ppp[0].queue queueBitLength:vector ETV
attr autoWarmupFilter false
attr interpolationmode sample-hold
attr recordingmode vector
attr source "warmup(atomic(constant0(packetPushEnded) + sum(packetLength(packetPushStarted)) - sum(packetLength(packetPulled)) - sum(packetLength(packetRemoved)) - sum(packetLength(packetDropped))))"
attr title "queue bit length"
attr unit b
vector 7 SingleCell_Standalone.router.ppp[1].queue queueLength:vector ETV
attr autoWarmupFilter false
attr interpolationmode sample-hold
attr recordingmode vector
attr source "warmup(atomic(constant0(packetPushEnded) + count(packetPushStarted) - count(packetPulled) - count(packetRemoved) - count(packetDropped)))"
attr title "queue length"
attr unit pk
vector 8 SingleCell_Standalone.router.ppp[1].queue queueBitLength:vector ETV
attr autoWarmupFilter false
attr interpolationmode sample-hold
attr recordingmode vector
attr source "warmup(atomic(constant0(packetPushEnded) + sum(packetLength(packetPushStarted)) - sum(packetLength(packetPulled)) - sum(packetLength(packetRemoved)) - sum(packetLength(packetDropped))))"
attr title "queue bit length"
attr unit b
vector 9 SingleCell_Standalone.upf.ppp[0].queue queueLength:vector ETV
attr autoWarmupFilter false
attr interpolationmode sample-hold
attr recordingmode vector
attr source "warmup(atomic(constant0(packetPushEnded) + count(packetPushStarted) - count(packetPulled) - count(packetRemoved) - count(packetDropped)))"
attr title "queue length"
attr unit pk
vector 10 SingleCell_Standalone.upf.ppp[0].queue queueBitLength:vector ETV
attr autoWarmupFilter false
attr interpolationmode sample-hold
attr recordingmode vector
attr source "warmup(atomic(constant0(packetPushEnded) + sum(packetLength(packetPushStarted)) - sum(packetLength(packetPulled)) - sum(packetLength(packetRemoved)) - sum(packetLength(packetDropped))))"
attr title "queue bit length"
attr unit b
vector 11 SingleCell_Standalone.upf.pppIf.queue queueLength:vector ETV
attr autoWarmupFilter false
attr interpolationmode sample-hold
attr recordingmode vector
attr source "warmup(atomic(constant0(packetPushEnded) + count(packetPushStarted) - count(packetPulled) - count(packetRemoved) - count(packetDropped)))"
attr title "queue length"
attr unit pk
vector 12 SingleCell_Standalone.upf.pppIf.queue queueBitLength:vector ETV
attr autoWarmupFilter false
attr interpolationmode sample-hold
attr recordingmode vector
attr source "warmup(atomic(constant0(packetPushEnded) + sum(packetLength(packetPushStarted)) - sum(packetLength(packetPulled)) - sum(packetLength(packetRemoved)) - sum(packetLength(packetDropped))))"
attr title "queue bit length"
attr unit b
vector 13 SingleCell_Standalone.upf.udp passedUpPk:vector(count) ETV
attr interpolationmode none
attr recordingmode vector(count)
attr source packetSentToUpper
attr title "packets passed up, count"
vector 14 SingleCell_Standalone.upf.udp droppedPkWrongPort:vector(count) ETV
attr interpolationmode none
attr recordingmode vector(count)
attr source packetDropReasonIsNoPortFound(packetDropped)
attr title "packets dropped (wrong port), count"
vector 15 SingleCell_Standalone.upf.udp droppedPkBadChecksum:vector(count) ETV
attr interpolationmode none
attr recordingmode vector(count)
attr source packetDropReasonIsIncorrectlyReceived(packetDropped)
attr title "packets dropped (checksum error), count"
vector 16 SingleCell_Standalone.iUpf.ppp[0].queue queueLength:vector ETV
attr autoWarmupFilter false
attr interpolationmode sample-hold
attr recordingmode vector
attr source "warmup(atomic(constant0(packetPushEnded) + count(packetPushStarted) - count(packetPulled) - count(packetRemoved) - count(packetDropped)))"
attr title "queue length"
attr unit pk
vector 17 SingleCell_Standalone.iUpf.ppp[0].queue queueBitLength:vector ETV
attr autoWarmupFilter false
attr interpolationmode sample-hold
attr recordingmode vector
attr source "warmup(atomic(constant0(packetPushEnded) + sum(packetLength(packetPushStarted)) - sum(packetLength(packetPulled)) - sum(packetLength(packetRemoved)) - sum(packetLength(packetDropped))))"
attr title "queue bit length"
attr unit b
vector 18 SingleCell_Standalone.iUpf.ppp[1].queue queueLength:vector ETV
attr autoWarmupFilter false
attr interpolationmode sample-hold
attr recordingmode vector
attr source "warmup(atomic(constant0(packetPushEnded) + count(packetPushStarted) - count(packetPulled) - count(packetRemoved) - count(packetDropped)))"
attr title "queue length"
attr unit pk
vector 19 SingleCell_Standalone.iUpf.ppp[1].queue queueBitLength:vector ETV
attr autoWarmupFilter false
attr interpolationmode sample-hold
attr recordingmode vector
attr source "warmup(atomic(constant0(packetPushEnded) + sum(packetLength(packetPushStarted)) - sum(packetLength(packetPulled)) - sum(packetLength(packetRemoved)) - sum(packetLength(packetDropped))))"
attr title "queue bit length"
attr unit b
vector 20 SingleCell_Standalone.iUpf.pppIf.queue queueLength:vector ETV
attr autoWarmupFilter false
attr interpolationmode sample-hold
attr recordingmode vector
attr source "warmup(atomic(constant0(packetPushEnded) + count(packetPushStarted) - count(packetPulled) - count(packetRemoved) - count(packetDropped)))"
attr title "queue length"
attr unit pk
vector 21 SingleCell_Standalone.iUpf.pppIf.queue queueBitLength:vector ETV
attr autoWarmupFilter false
attr interpolationmode sample-hold
attr recordingmode vector
attr source "warmup(atomic(constant0(packetPushEnded) + sum(packetLength(packetPushStarted)) - sum(packetLength(packetPulled)) - sum(packetLength(packetRemoved)) - sum(packetLength(packetDropped))))"
attr title "queue bit length"
attr unit b
vector 22 SingleCell_Standalone.iUpf.udp passedUpPk:vector(count) ETV
attr interpolationmode none
attr recordingmode vector(count)
attr source packetSentToUpper
attr title "packets passed up, count"
vector 23 SingleCell_Standalone.iUpf.udp droppedPkWrongPort:vector(count) ETV
attr interpolationmode none
attr recordingmode vector(count)
attr source packetDropReasonIsNoPortFound(packetDropped)
attr title "packets dropped (wrong port), count"
vector 24 SingleCell_Standalone.iUpf.udp droppedPkBadChecksum:vector(count) ETV
attr interpolationmode none
attr recordingmode vector(count)
attr source packetDropReasonIsIncorrectlyReceived(packetDropped)
attr title "packets dropped (checksum error), count"
vector 25 SingleCell_Standalone.gnb.pppIf.queue queueLength:vector ETV
attr autoWarmupFilter false
attr interpolationmode sample-hold
attr recordingmode vector
attr source "warmup(atomic(constant0(packetPushEnded) + count(packetPushStarted) - count(packetPulled) - count(packetRemoved) - count(packetDropped)))"
attr title "queue length"
attr unit pk
vector 26 SingleCell_Standalone.gnb.pppIf.queue queueBitLength:vector ETV
attr autoWarmupFilter false
attr interpolationmode sample-hold
attr recordingmode vector
attr source "warmup(atomic(constant0(packetPushEnded) + sum(packetLength(packetPushStarted)) - sum(packetLength(packetPulled)) - sum(packetLength(packetRemoved)) - sum(packetLength(packetDropped))))"
attr title "queue bit length"
attr unit b
vector 27 SingleCell_Standalone.gnb.pppMEHostIf.queue queueLength:vector ETV
attr autoWarmupFilter false
attr interpolationmode sample-hold
attr recordingmode vector
attr source "warmup(atomic(constant0(packetPushEnded) + count(packetPushStarted) - count(packetPulled) - count(packetRemoved) - count(packetDropped)))"
attr title "queue length"
attr unit pk
vector 28 SingleCell_Standalone.gnb.pppMEHostIf.queue queueBitLength:vector ETV
attr autoWarmupFilter false
attr interpolationmode sample-hold
attr recordingmode vector
attr source "warmup(atomic(constant0(packetPushEnded) + sum(packetLength(packetPushStarted)) - sum(packetLength(packetPulled)) - sum(packetLength(packetRemoved)) - sum(packetLength(packetDropped))))"
attr title "queue bit length"
attr unit b
vector 29 SingleCell_Standalone.gnb.udp passedUpPk:vector(count) ETV
attr interpolationmode none
attr recordingmode vector(count)
attr source packetSentToUpper
attr title "packets passed up, count"
vector 30 SingleCell_Standalone.gnb.udp droppedPkWrongPort:vector(count) ETV
attr interpolationmode none
attr recordingmode vector(count)
attr source packetDropReasonIsNoPortFound(packetDropped)
attr title "packets dropped (wrong port), count"
vector 31 SingleCell_Standalone.gnb.udp droppedPkBadChecksum:vector(count) ETV
attr interpolationmode none
attr recordingmode vector(count)
attr source packetDropReasonIsIncorrectlyReceived(packetDropped)
attr title "packets dropped (checksum error), count"
vector 32 SingleCell_Standalone.ue[0].udp passedUpPk:vector(count) ETV
attr interpolationmode none
attr recordingmode vector(count)
attr source packetSentToUpper
attr title "packets passed up, count"
vector 33 SingleCell_Standalone.ue[0].udp droppedPkWrongPort:vector(count) ETV
attr interpolationmode none
attr recordingmode vector(count)
attr source packetDropReasonIsNoPortFound(packetDropped)
attr title "packets dropped (wrong port), count"
vector 34 SingleCell_Standalone.ue[0].udp droppedPkBadChecksum:vector(count) ETV
attr interpolationmode none
attr recordingmode vector(count)
attr source packetDropReasonIsIncorrectlyReceived(packetDropped)
attr title "packets dropped (checksum error), count"
vector 35 SingleCell_Standalone.ue[1].udp passedUpPk:vector(count) ETV
attr interpolationmode none
attr recordingmode vector(count)
attr source packetSentToUpper
attr title "packets passed up, count"
vector 36 SingleCell_Standalone.ue[1].udp droppedPkWrongPort:vector(count) ETV
attr interpolationmode none
attr recordingmode vector(count)
attr source packetDropReasonIsNoPortFound(packetDropped)
attr title "packets dropped (wrong port), count"
vector 37 SingleCell_Standalone.ue[1].udp droppedPkBadChecksum:vector(count) ETV
attr interpolationmode none
attr recordingmode vector(count)
attr source packetDropReasonIsIncorrectlyReceived(packetDropped)
attr title "packets dropped (checksum error), count"
vector 38 SingleCell_Standalone.ue[2].udp passedUpPk:vector(count) ETV
attr interpolationmode none
attr recordingmode vector(count)
attr source packetSentToUpper
attr title "packets passed up, count"
vector 39 SingleCell_Standalone.ue[2].udp droppedPkWrongPort:vector(count) ETV
attr interpolationmode none
attr recordingmode vector(count)
attr source packetDropReasonIsNoPortFound(packetDropped)
attr title "packets dropped (wrong port), count"
vector 40 SingleCell_Standalone.ue[2].udp droppedPkBadChecksum:vector(count) ETV
attr interpolationmode none
attr recordingmode vector(count)
attr source packetDropReasonIsIncorrectlyReceived(packetDropped)
attr title "packets dropped (checksum error), count"
vector 41 SingleCell_Standalone.ue[3].udp passedUpPk:vector(count) ETV
attr interpolationmode none
attr recordingmode vector(count)
attr source packetSentToUpper
attr title "packets passed up, count"
vector 42 SingleCell_Standalone.ue[3].udp droppedPkWrongPort:vector(count) ETV
attr interpolationmode none
attr recordingmode vector(count)
attr source packetDropReasonIsNoPortFound(packetDropped)
attr title "packets dropped (wrong port), count"
vector 43 SingleCell_Standalone.ue[3].udp droppedPkBadChecksum:vector(count) ETV
attr interpolationmode none
attr recordingmode vector(count)
attr source packetDropReasonIsIncorrectlyReceived(packetDropped)
attr title "packets dropped (checksum error), count"
vector 44 SingleCell_Standalone.ue[4].udp passedUpPk:vector(count) ETV
attr interpolationmode none
attr recordingmode vector(count)
attr source packetSentToUpper
attr title "packets passed up, count"
vector 45 SingleCell_Standalone.ue[4].udp droppedPkWrongPort:vector(count) ETV
attr interpolationmode none
attr recordingmode vector(count)
attr source packetDropReasonIsNoPortFound(packetDropped)
attr title "packets dropped (wrong port), count"
vector 46 SingleCell_Standalone.ue[4].udp droppedPkBadChecksum:vector(count) ETV
attr interpolationmode none
attr recordingmode vector(count)
attr source packetDropReasonIsIncorrectlyReceived(packetDropped)
attr title "packets dropped (checksum error), count"
vector 47 SingleCell_Standalone.ue[5].udp passedUpPk:vector(count) ETV
attr interpolationmode none
attr recordingmode vector(count)
attr source packetSentToUpper
attr title "packets passed up, count"
vector 48 SingleCell_Standalone.ue[5].udp droppedPkWrongPort:vector(count) ETV
attr interpolationmode none
attr recordingmode vector(count)
attr source packetDropReasonIsNoPortFound(packetDropped)
attr title "packets dropped (wrong port), count"
vector 49 SingleCell_Standalone.ue[5].udp droppedPkBadChecksum:vector(count) ETV
attr interpolationmode none
attr recordingmode vector(count)
attr source packetDropReasonIsIncorrectlyReceived(packetDropped)
attr title "packets dropped (checksum error), count"
vector 50 SingleCell_Standalone.ue[6].udp passedUpPk:vector(count) ETV
attr interpolationmode none
attr recordingmode vector(count)
attr source packetSentToUpper
attr title "packets passed up, count"
vector 51 SingleCell_Standalone.ue[6].udp droppedPkWrongPort:vector(count) ETV
attr interpolationmode none
attr recordingmode vector(count)
attr source packetDropReasonIsNoPortFound(packetDropped)
attr title "packets dropped (wrong port), count"
vector 52 SingleCell_Standalone.ue[6].udp droppedPkBadChecksum:vector(count) ETV
attr interpolationmode none
attr recordingmode vector(count)
attr source packetDropReasonIsIncorrectlyReceived(packetDropped)
attr title "packets dropped (checksum error), count"
vector 53 SingleCell_Standalone.ue[7].udp passedUpPk:vector(count) ETV
attr interpolationmode none
attr recordingmode vector(count)
attr source packetSentToUpper
attr title "packets passed up, count"
vector 54 SingleCell_Standalone.ue[7].udp droppedPkWrongPort:vector(count) ETV
attr interpolationmode none
attr recordingmode vector(count)
attr source packetDropReasonIsNoPortFound(packetDropped)
attr title "packets dropped (wrong port), count"
vector 55 SingleCell_Standalone.ue[7].udp droppedPkBadChecksum:vector(count) ETV
attr interpolationmode none
attr recordingmode vector(count)
attr source packetDropReasonIsIncorrectlyReceived(packetDropped)
attr title "packets dropped (checksum error), count"
vector 56 SingleCell_Standalone.ue[8].udp passedUpPk:vector(count) ETV
attr interpolationmode none
attr recordingmode vector(count)
attr source packetSentToUpper
attr title "packets passed up, count"
vector 57 SingleCell_Standalone.ue[8].udp droppedPkWrongPort:vector(count) ETV
attr interpolationmode none
attr recordingmode vector(count)
attr source packetDropReasonIsNoPortFound(packetDropped)
attr title "packets dropped (wrong port), count"
vector 58 SingleCell_Standalone.ue[8].udp droppedPkBadChecksum:vector(count) ETV
attr interpolationmode none
attr recordingmode vector(count)
attr source packetDropReasonIsIncorrectlyReceived(packetDropped)
attr title "packets dropped (checksum error), count"
vector 59 SingleCell_Standalone.ue[9].udp passedUpPk:vector(count) ETV
attr interpolationmode none
attr recordingmode vector(count)
attr source packetSentToUpper
attr title "packets passed up, count"
vector 60 SingleCell_Standalone.ue[9].udp droppedPkWrongPort:vector(count) ETV
attr interpolationmode none
attr recordingmode vector(count)
attr source packetDropReasonIsNoPortFound(packetDropped)
attr title "packets dropped (wrong port), count"
vector 61 SingleCell_Standalone.ue[9].udp droppedPkBadChecksum:vector(count) ETV
attr interpolationmode none
attr recordingmode vector(count)
attr source packetDropReasonIsIncorrectlyReceived(packetDropped)
attr title "packets dropped (checksum error), count"
vector 62 SingleCell_Standalone.ue[10].udp passedUpPk:vector(count) ETV
attr interpolationmode none
attr recordingmode vector(count)
attr source packetSentToUpper
attr title "packets passed up, count"
vector 63 SingleCell_Standalone.ue[10].udp droppedPkWrongPort:vector(count) ETV
attr interpolationmode none
attr recordingmode vector(count)
attr source packetDropReasonIsNoPortFound(packetDropped)
attr title "packets dropped (wrong port), count"
vector 64 SingleCell_Standalone.ue[10].udp droppedPkBadChecksum:vector(count) ETV
attr interpolationmode none
attr recordingmode vector(count)
attr source packetDropReasonIsIncorrectlyReceived(packetDropped)
attr title "packets dropped (checksum error), count"
vector 65 SingleCell_Standalone.ue[11].udp passedUpPk:vector(count) ETV
attr interpolationmode none
attr recordingmode vector(count)
attr source packetSentToUpper
attr title "packets passed up, count"
vector 66 SingleCell_Standalone.ue[11].udp droppedPkWrongPort:vector(count) ETV
attr interpolationmode none
attr recordingmode vector(count)
attr source packetDropReasonIsNoPortFound(packetDropped)
attr title "packets dropped (wrong port), count"
vector 67 SingleCell_Standalone.ue[11].udp droppedPkBadChecksum:vector(count) ETV
attr interpolationmode none
attr recordingmode vector(count)
attr source packetDropReasonIsIncorrectlyReceived(packetDropped)
attr title "packets dropped (checksum error), count"
vector 68 SingleCell_Standalone.ue[12].udp passedUpPk:vector(count) ETV
attr interpolationmode none
attr recordingmode vector(count)
attr source packetSentToUpper
attr title "packets passed up, count"
vector 69 SingleCell_Standalone.ue[12].udp droppedPkWrongPort:vector(count) ETV
attr interpolationmode none
attr recordingmode vector(count)
attr source packetDropReasonIsNoPortFound(packetDropped)
attr title "packets dropped (wrong port), count"
vector 70 SingleCell_Standalone.ue[12].udp droppedPkBadChecksum:vector(count) ETV
attr interpolationmode none
attr recordingmode vector(count)
attr source packetDropReasonIsIncorrectlyReceived(packetDropped)
attr title "packets dropped (checksum error), count"
vector 71 SingleCell_Standalone.ue[13].udp passedUpPk:vector(count) ETV
attr interpolationmode none
attr recordingmode vector(count)
attr source packetSentToUpper
attr title "packets passed up, count"
vector 72 SingleCell_Standalone.ue[13].udp droppedPkWrongPort:vector(count) ETV
attr interpolationmode none
attr recordingmode vector(count)
attr source packetDropReasonIsNoPortFound(packetDropped)
attr title "packets dropped (wrong port), count"
vector 73 SingleCell_Standalone.ue[13].udp droppedPkBadChecksum:vector(count) ETV
attr interpolationmode none
attr recordingmode vector(count)
attr source packetDropReasonIsIncorrectlyReceived(packetDropped)
attr title "packets dropped (checksum error), count"
vector 74 SingleCell_Standalone.ue[14].udp passedUpPk:vector(count) ETV
attr interpolationmode none
attr recordingmode vector(count)
attr source packetSentToUpper
attr title "packets passed up, count"
vector 75 SingleCell_Standalone.ue[14].udp droppedPkWrongPort:vector(count) ETV
attr interpolationmode none
attr recordingmode vector(count)
attr source packetDropReasonIsNoPortFound(packetDropped)
attr title "packets dropped (wrong port), count"
vector 76 SingleCell_Standalone.ue[14].udp droppedPkBadChecksum:vector(count) ETV
attr interpolationmode none
attr recordingmode vector(count)
attr source packetDropReasonIsIncorrectlyReceived(packetDropped)
attr title "packets dropped (checksum error), count"
vector 77 SingleCell_Standalone.ue[15].udp passedUpPk:vector(count) ETV
attr interpolationmode none
attr recordingmode vector(count)
attr source packetSentToUpper
attr title "packets passed up, count"
vector 78 SingleCell_Standalone.ue[15].udp droppedPkWrongPort:vector(count) ETV
attr interpolationmode none
attr recordingmode vector(count)
attr source packetDropReasonIsNoPortFound(packetDropped)
attr title "packets dropped (wrong port), count"
vector 79 SingleCell_Standalone.ue[15].udp droppedPkBadChecksum:vector(count) ETV
attr interpolationmode none
attr recordingmode vector(count)
attr source packetDropReasonIsIncorrectlyReceived(packetDropped)
attr title "packets dropped (checksum error), count"
vector 80 SingleCell_Standalone.ue[16].udp passedUpPk:vector(count) ETV
attr interpolationmode none
attr recordingmode vector(count)
attr source packetSentToUpper
attr title "packets passed up, count"
vector 81 SingleCell_Standalone.ue[16].udp droppedPkWrongPort:vector(count) ETV
attr interpolationmode none
attr recordingmode vector(count)
attr source packetDropReasonIsNoPortFound(packetDropped)
attr title "packets dropped (wrong port), count"
vector 82 SingleCell_Standalone.ue[16].udp droppedPkBadChecksum:vector(count) ETV
attr interpolationmode none
attr recordingmode vector(count)
attr source packetDropReasonIsIncorrectlyReceived(packetDropped)
attr title "packets dropped (checksum error), count"
vector 83 SingleCell_Standalone.ue[17].udp passedUpPk:vector(count) ETV
attr interpolationmode none
attr recordingmode vector(count)
attr source packetSentToUpper
attr title "packets passed up, count"
vector 84 SingleCell_Standalone.ue[17].udp droppedPkWrongPort:vector(count) ETV
attr interpolationmode none
attr recordingmode vector(count)
attr source packetDropReasonIsNoPortFound(packetDropped)
attr title "packets dropped (wrong port), count"
vector 85 SingleCell_Standalone.ue[17].udp droppedPkBadChecksum:vector(count) ETV
attr interpolationmode none
attr recordingmode vector(count)
attr source packetDropReasonIsIncorrectlyReceived(packetDropped)
attr title "packets dropped (checksum error), count"
vector 86 SingleCell_Standalone.ue[18].udp passedUpPk:vector(count) ETV
attr interpolationmode none
attr recordingmode vector(count)
attr source packetSentToUpper
attr title "packets passed up, count"
vector 87 SingleCell_Standalone.ue[18].udp droppedPkWrongPort:vector(count) ETV
attr interpolationmode none
attr recordingmode vector(count)
attr source packetDropReasonIsNoPortFound(packetDropped)
attr title "packets dropped (wrong port), count"
vector 88 SingleCell_Standalone.ue[18].udp droppedPkBadChecksum:vector(count) ETV
attr interpolationmode none
attr recordingmode vector(count)
attr source packetDropReasonIsIncorrectlyReceived(packetDropped)
attr title "packets dropped (checksum error), count"
vector 89 SingleCell_Standalone.ue[19].udp passedUpPk:vector(count) ETV
attr interpolationmode none
attr recordingmode vector(count)
attr source packetSentToUpper
attr title "packets passed up, count"
vector 90 SingleCell_Standalone.ue[19].udp droppedPkWrongPort:vector(count) ETV
attr interpolationmode none
attr recordingmode vector(count)
attr source packetDropReasonIsNoPortFound(packetDropped)
attr title "packets dropped (wrong port), count"
vector 91 SingleCell_Standalone.ue[19].udp droppedPkBadChecksum:vector(count) ETV
attr interpolationmode none
attr recordingmode vector(count)
attr source packetDropReasonIsIncorrectlyReceived(packetDropped)
attr title "packets dropped (checksum error), count"
vector 92 SingleCell_Standalone.bgCell[0].bgScheduler bgAvgServedBlocksUl:vector ETV
attr recordingmode vector
attr source bgAvgServedBlocksUl
attr title "Average UL served blocks for background cells"
attr unit ""
vector 93 SingleCell_Standalone.bgCell[0].bgTrafficGenerator.bgUE[4].generator bgAverageCqiDl:vector ETV
attr recordingmode vector
attr source bgAverageCqiDl
attr title "Average DL CQI for background UEs"
attr unit ""
vector 94 SingleCell_Standalone.bgCell[0].bgTrafficGenerator.bgUE[4].generator bgHarqErrorRateDl:vector ETV
attr recordingmode vector
attr source bgHarqErrorRateDl
attr title "Average DL HARQ error rate for background UEs"
attr unit ""
vector 95 SingleCell_Standalone.bgCell[0].bgScheduler bgAvgServedBlocksDl:vector ETV
attr recordingmode vector
attr source bgAvgServedBlocksDl
attr title "Average DL served blocks for background cells"
attr unit ""
vector 96 SingleCell_Standalone.bgCell[1].bgScheduler bgAvgServedBlocksUl:vector ETV
attr recordingmode vector
attr source bgAvgServedBlocksUl
attr title "Average UL served blocks for background cells"
attr unit ""
vector 97 SingleCell_Standalone.bgCell[1].bgTrafficGenerator.bgUE[8].generator bgAverageCqiDl:vector ETV
attr recordingmode vector
attr source bgAverageCqiDl
attr title "Average DL CQI for background UEs"
attr unit ""
vector 98 SingleCell_Standalone.bgCell[1].bgTrafficGenerator.bgUE[8].generator bgHarqErrorRateDl:vector ETV
attr recordingmode vector
attr source bgHarqErrorRateDl
attr title "Average DL HARQ error rate for background UEs"
attr unit ""
vector 99 SingleCell_Standalone.bgCell[1].bgScheduler bgAvgServedBlocksDl:vector ETV
attr recordingmode vector
attr source bgAvgServedBlocksDl
attr title "Average DL served blocks for background cells"
attr unit ""
vector 100 SingleCell_Standalone.gnb.cellularNic.mac avgServedBlocksUl:vector ETV
attr recordingmode vector
attr source avgServedBlocksUl
attr title "Avg Served Blocks Ul"
attr unit blocks
vector 101 SingleCell_Standalone.gnb.cellularNic.mac avgServedBlocksDl:vector ETV
attr recordingmode vector
attr source avgServedBlocksDl
attr title "Avg Served Blocks Dl"
attr unit blocks
vector 102 SingleCell_Standalone.gnb.cellularNic.mac sentPacketToUpperLayer:vector(packetBytes) ETV
attr interpolationmode none
attr recordingmode vector(packetBytes)
attr source sentPacketToUpperLayer
vector 103 SingleCell_Standalone.gnb.cellularNic.rlc.um rlcPacketLossDl:vector ETV
attr recordingmode vector
attr source rlcPacketLossDl
attr title "rlc Packet Loss"
attr unit ""
vector 104 SingleCell_Standalone.gnb.cellularNic.rlc.um sentPacketToLowerLayer:vector(packetBytes) ETV
attr interpolationmode none
attr recordingmode vector(packetBytes)
attr source sentPacketToLowerLayer
vector 105 SingleCell_Standalone.gnb.cellularNic.mac receivedPacketFromUpperLayer:vector(packetBytes) ETV
attr interpolationmode none
attr recordingmode vector(packetBytes)
attr source receivedPacketFromUpperLayer
vector 106 SingleCell_Standalone.ue[1].cellularNic.nrMac sentPacketToLowerLayer:vector(packetBytes) ETV
attr interpolationmode none
attr recordingmode vector(packetBytes)
attr source sentPacketToLowerLayer
vector 107 SingleCell_Standalone.gnb.cellularNic.mac macDelayDl:vector ETV
attr recordingmode vector
attr source macDelayDl
attr title "Delay at the MAC layer UL"
attr unit s
vector 108 SingleCell_Standalone.ue[1].cellularNic.nrMac sentPacketToUpperLayer:vector(packetBytes) ETV
attr interpolationmode none
attr recordingmode vector(packetBytes)
attr source sentPacketToUpperLayer
vector 109 SingleCell_Standalone.ue[1].cellularNic.nrRlc.um receivedPacketFromLowerLayer:vector(packetBytes) ETV
attr interpolationmode none
attr recordingmode vector(packetBytes)
attr source receivedPacketFromLowerLayer
vector 110 SingleCell_Standalone.ue[1].cellularNic.nrRlc.um rlcPduThroughputDl:vector ETV
attr recordingmode vector
attr source rlcPduThroughputDl
attr title "Throughput at the rlc layer DL"
attr unit Bps
vector 111 SingleCell_Standalone.ue[1].cellularNic.nrRlc.um rlcPduDelayDl:vector ETV
attr recordingmode vector
attr source rlcPduDelayDl
attr title "Delay at the rlc layer UL"
attr unit s
vector 112 SingleCell_Standalone.ue[1].cellularNic.nrRlc.um rlcPduPacketLossDl:vector ETV
attr recordingmode vector
attr source rlcPduPacketLossDl
attr title "rlc Packet Loss"
attr unit ""
vector 113 SingleCell_Standalone.ue[5].cellularNic.nrMac sentPacketToLowerLayer:vector(packetBytes) ETV
attr interpolationmode none
attr recordingmode vector(packetBytes)
attr source sentPacketToLowerLayer
vector 114 SingleCell_Standalone.ue[5].cellularNic.nrMac sentPacketToUpperLayer:vector(packetBytes) ETV
attr interpolationmode none
attr recordingmode vector(packetBytes)
attr source sentPacketToUpperLayer
vector 115 SingleCell_Standalone.ue[5].cellularNic.nrRlc.um receivedPacketFromLowerLayer:vector(packetBytes) ETV
attr interpolationmode none
attr recordingmode vector(packetBytes)
attr source receivedPacketFromLowerLayer
vector 116 SingleCell_Standalone.ue[5].cellularNic.nrRlc.um rlcPduThroughputDl:vector ETV
attr recordingmode vector
attr source rlcPduThroughputDl
attr title "Throughput at the rlc layer DL"
attr unit Bps
vector 117 SingleCell_Standalone.ue[5].cellularNic.nrRlc.um rlcPduDelayDl:vector ETV
attr recordingmode vector
attr source rlcPduDelayDl
attr title "Delay at the rlc layer UL"
attr unit s
vector 118 SingleCell_Standalone.ue[5].cellularNic.nrRlc.um rlcThroughputDl:vector ETV
attr recordingmode vector
attr source rlcThroughputDl
attr title "Throughput at the rlc layer DL"
attr unit Bps
vector 119 SingleCell_Standalone.ue[5].cellularNic.nrRlc.um rlcPacketLossDl:vector ETV
attr recordingmode vector
attr source rlcPacketLossDl
attr title "rlc Packet Loss"
attr unit ""
vector 120 SingleCell_Standalone.ue[5].cellularNic.nrRlc.um rlcPacketLossTotal:vector ETV
attr recordingmode vector
attr source rlcPacketLossTotal
attr title "rlc Packet Loss"
attr unit ""
vector 121 SingleCell_Standalone.ue[5].cellularNic.nrRlc.um rlcDelayDl:vector ETV
attr recordingmode vector
attr source rlcDelayDl
attr title "Delay at the rlc layer DL"
attr unit s
vector 122 SingleCell_Standalone.ue[5].cellularNic.nrRlc.um sentPacketToUpperLayer:vector(packetBytes) ETV
attr interpolationmode none
attr recordingmode vector(packetBytes)
attr source sentPacketToUpperLayer
vector 123 SingleCell_Standalone.ue[5].cellularNic.nrRlc.um rlcPduPacketLossDl:vector ETV
attr recordingmode vector
attr source rlcPduPacketLossDl
attr title "rlc Packet Loss"
attr unit ""
vector 124 SingleCell_Standalone.ue[5].cellularNic.pdcpRrc receivedPacketFromLowerLayer:vector(packetBytes) ETV
attr interpolationmode none
attr recordingmode vector(packetBytes)
attr source receivedPacketFromLowerLayer
vector 125 SingleCell_Standalone.ue[5].cellularNic.pdcpRrc sentPacketToUpperLayer:vector(packetBytes) ETV
attr interpolationmode none
attr recordingmode vector(packetBytes)
attr source sentPacketToUpperLayer
vector 126 SingleCell_Standalone.ue[5].udp packetReceived:vector(packetBytes) ETV
attr interpolationmode none
attr recordingmode vector(packetBytes)
attr source packetReceived
attr title "packets received, packetBytes"
vector 127 SingleCell_Standalone.ue[5].app[0] cbrFrameDelay:vector ETV
attr recordingmode vector
attr source cbrFrameDelaySignal
attr title "Cbr Frame Delay"
attr unit s
vector 128 SingleCell_Standalone.ue[5].app[0] cbrRcvdPkt:vector ETV
attr recordingmode vector
attr source cbrRcvdPkt
attr title "Received packet ID"
attr unit ""
vector 129 SingleCell_Standalone.ue[13].cellularNic.nrMac sentPacketToLowerLayer:vector(packetBytes) ETV
attr interpolationmode none
attr recordingmode vector(packetBytes)
attr source sentPacketToLowerLayer
vector 130 SingleCell_Standalone.ue[13].cellularNic.nrMac sentPacketToUpperLayer:vector(packetBytes) ETV
attr interpolationmode none
attr recordingmode vector(packetBytes)
attr source sentPacketToUpperLayer
vector 131 SingleCell_Standalone.ue[13].cellularNic.nrRlc.um receivedPacketFromLowerLayer:vector(packetBytes) ETV
attr interpolationmode none
attr recordingmode vector(packetBytes)
attr source receivedPacketFromLowerLayer
vector 132 SingleCell_Standalone.ue[13].cellularNic.nrRlc.um rlcPduThroughputDl:vector ETV
attr recordingmode vector
attr source rlcPduThroughputDl
attr title "Throughput at the rlc layer DL"
attr unit Bps
vector 133 SingleCell_Standalone.ue[13].cellularNic.nrRlc.um rlcPduDelayDl:vector ETV
attr recordingmode vector
attr source rlcPduDelayDl
attr title "Delay at the rlc layer UL"
attr unit s
vector 134 SingleCell_Standalone.ue[13].cellularNic.nrRlc.um rlcThroughputDl:vector ETV
attr recordingmode vector
attr source rlcThroughputDl
attr title "Throughput at the rlc layer DL"
attr unit Bps
vector 135 SingleCell_Standalone.ue[13].cellularNic.nrRlc.um rlcPacketLossDl:vector ETV
attr recordingmode vector
attr source rlcPacketLossDl
attr title "rlc Packet Loss"
attr unit ""
vector 136 SingleCell_Standalone.ue[13].cellularNic.nrRlc.um rlcPacketLossTotal:vector ETV
attr recordingmode vector
attr source rlcPacketLossTotal
attr title "rlc Packet Loss"
attr unit ""
vector 137 SingleCell_Standalone.ue[13].cellularNic.nrRlc.um rlcDelayDl:vector ETV
attr recordingmode vector
attr source rlcDelayDl
attr title "Delay at the rlc layer DL"
attr unit s
vector 138 SingleCell_Standalone.ue[13].cellularNic.nrRlc.um sentPacketToUpperLayer:vector(packetBytes) ETV
attr interpolationmode none
attr recordingmode vector(packetBytes)
attr source sentPacketToUpperLayer
vector 139 SingleCell_Standalone.ue[13].cellularNic.nrRlc.um rlcPduPacketLossDl:vector ETV
attr recordingmode vector
attr source rlcPduPacketLossDl
attr title "rlc Packet Loss"
attr unit ""
vector 140 SingleCell_Standalone.ue[13].cellularNic.pdcpRrc receivedPacketFromLowerLayer:vector(packetBytes) ETV
attr interpolationmode none
attr recordingmode vector(packetBytes)
attr source receivedPacketFromLowerLayer
vector 141 SingleCell_Standalone.ue[13].cellularNic.pdcpRrc sentPacketToUpperLayer:vector(packetBytes) ETV
attr interpolationmode none
attr recordingmode vector(packetBytes)
attr source sentPacketToUpperLayer
vector 142 SingleCell_Standalone.ue[13].udp packetReceived:vector(packetBytes) ETV
attr interpolationmode none
attr recordingmode vector(packetBytes)
attr source packetReceived
attr title "packets received, packetBytes"
vector 143 SingleCell_Standalone.ue[13].app[0] cbrFrameDelay:vector ETV
attr recordingmode vector
attr source cbrFrameDelaySignal
attr title "Cbr Frame Delay"
attr unit s
vector 144 SingleCell_Standalone.ue[13].app[0] cbrRcvdPkt:vector ETV
attr recordingmode vector
attr source cbrRcvdPkt
attr title "Received packet ID"
attr unit ""
vector 145 SingleCell_Standalone.ue[14].cellularNic.nrMac sentPacketToLowerLayer:vector(packetBytes) ETV
attr interpolationmode none
attr recordingmode vector(packetBytes)
attr source sentPacketToLowerLayer
vector 146 SingleCell_Standalone.ue[14].cellularNic.nrMac sentPacketToUpperLayer:vector(packetBytes) ETV
attr interpolationmode none
attr recordingmode vector(packetBytes)
attr source sentPacketToUpperLayer
vector 147 SingleCell_Standalone.ue[14].cellularNic.nrRlc.um receivedPacketFromLowerLayer:vector(packetBytes) ETV
attr interpolationmode none
attr recordingmode vector(packetBytes)
attr source receivedPacketFromLowerLayer
vector 148 SingleCell_Standalone.ue[14].cellularNic.nrRlc.um rlcPduThroughputDl:vector ETV
attr recordingmode vector
attr source rlcPduThroughputDl
attr title "Throughput at the rlc layer DL"
attr unit Bps
vector 149 SingleCell_Standalone.ue[14].cellularNic.nrRlc.um rlcPduDelayDl:vector ETV
attr recordingmode vector
attr source rlcPduDelayDl
attr title "Delay at the rlc layer UL"
attr unit s
vector 150 SingleCell_Standalone.ue[14].cellularNic.nrRlc.um rlcThroughputDl:vector ETV
attr recordingmode vector
attr source rlcThroughputDl
attr title "Throughput at the rlc layer DL"
attr unit Bps
vector 151 SingleCell_Standalone.ue[14].cellularNic.nrRlc.um rlcPacketLossDl:vector ETV
attr recordingmode vector
attr source rlcPacketLossDl
attr title "rlc Packet Loss"
attr unit ""
vector 152 SingleCell_Standalone.ue[14].cellularNic.nrRlc.um rlcPacketLossTotal:vector ETV
attr recordingmode vector
attr source rlcPacketLossTotal
attr title "rlc Packet Loss"
attr unit ""
vector 153 SingleCell_Standalone.ue[14].cellularNic.nrRlc.um rlcDelayDl:vector ETV
attr recordingmode vector
attr source rlcDelayDl
attr title "Delay at the rlc layer DL"
attr unit s
vector 154 SingleCell_Standalone.ue[14].cellularNic.nrRlc.um sentPacketToUpperLayer:vector(packetBytes) ETV
attr interpolationmode none
attr recordingmode vector(packetBytes)
attr source sentPacketToUpperLayer
vector 155 SingleCell_Standalone.ue[14].cellularNic.nrRlc.um rlcPduPacketLossDl:vector ETV
attr recordingmode vector
attr source rlcPduPacketLossDl
attr title "rlc Packet Loss"
attr unit ""
vector 156 SingleCell_Standalone.ue[14].cellularNic.pdcpRrc receivedPacketFromLowerLayer:vector(packetBytes) ETV
attr interpolationmode none
attr recordingmode vector(packetBytes)
attr source receivedPacketFromLowerLayer
vector 157 SingleCell_Standalone.ue[14].cellularNic.pdcpRrc sentPacketToUpperLayer:vector(packetBytes) ETV
attr interpolationmode none
attr recordingmode vector(packetBytes)
attr source sentPacketToUpperLayer
vector 158 SingleCell_Standalone.ue[14].udp packetReceived:vector(packetBytes) ETV
attr interpolationmode none
attr recordingmode vector(packetBytes)
attr source packetReceived
attr title "packets received, packetBytes"
vector 159 SingleCell_Standalone.ue[14].app[0] cbrFrameDelay:vector ETV
attr recordingmode vector
attr source cbrFrameDelaySignal
attr title "Cbr Frame Delay"
attr unit s
vector 160 SingleCell_Standalone.ue[14].app[0] cbrRcvdPkt:vector ETV
attr recordingmode vector
attr source cbrRcvdPkt
attr title "Received packet ID"
attr unit ""
vector 161 SingleCell_Standalone.ue[19].cellularNic.nrMac sentPacketToLowerLayer:vector(packetBytes) ETV
attr interpolationmode none
attr recordingmode vector(packetBytes)
attr source sentPacketToLowerLayer
vector 162 SingleCell_Standalone.ue[19].cellularNic.nrMac sentPacketToUpperLayer:vector(packetBytes) ETV
attr interpolationmode none
attr recordingmode vector(packetBytes)
attr source sentPacketToUpperLayer
vector 163 SingleCell_Standalone.ue[19].cellularNic.nrRlc.um receivedPacketFromLowerLayer:vector(packetBytes) ETV
attr interpolationmode none
attr recordingmode vector(packetBytes)
attr source receivedPacketFromLowerLayer
vector 164 SingleCell_Standalone.ue[19].cellularNic.nrRlc.um rlcPduThroughputDl:vector ETV
attr recordingmode vector
attr source rlcPduThroughputDl
attr title "Throughput at the rlc layer DL"
attr unit Bps
vector 165 SingleCell_Standalone.ue[19].cellularNic.nrRlc.um rlcPduDelayDl:vector ETV
attr recordingmode vector
attr source rlcPduDelayDl
attr title "Delay at the rlc layer UL"
attr unit s
vector 166 SingleCell_Standalone.ue[19].cellularNic.nrRlc.um rlcThroughputDl:vector ETV
attr recordingmode vector
attr source rlcThroughputDl
attr title "Throughput at the rlc layer DL"
attr unit Bps
vector 167 SingleCell_Standalone.ue[19].cellularNic.nrRlc.um rlcPacketLossDl:vector ETV
attr recordingmode vector
attr source rlcPacketLossDl
attr title "rlc Packet Loss"
attr unit ""
vector 168 SingleCell_Standalone.ue[19].cellularNic.nrRlc.um rlcPacketLossTotal:vector ETV
attr recordingmode vector
attr source rlcPacketLossTotal
attr title "rlc Packet Loss"
attr unit ""
vector 169 SingleCell_Standalone.ue[19].cellularNic.nrRlc.um rlcDelayDl:vector ETV
attr recordingmode vector
attr source rlcDelayDl
attr title "Delay at the rlc layer DL"
attr unit s
vector 170 SingleCell_Standalone.ue[19].cellularNic.nrRlc.um sentPacketToUpperLayer:vector(packetBytes) ETV
attr interpolationmode none
attr recordingmode vector(packetBytes)
attr source sentPacketToUpperLayer
vector 171 SingleCell_Standalone.ue[19].cellularNic.nrRlc.um rlcPduPacketLossDl:vector ETV
attr recordingmode vector
attr source rlcPduPacketLossDl
attr title "rlc Packet Loss"
attr unit ""
vector 172 SingleCell_Standalone.ue[19].cellularNic.pdcpRrc receivedPacketFromLowerLayer:vector(packetBytes) ETV
attr interpolationmode none
attr recordingmode vector(packetBytes)
attr source receivedPacketFromLowerLayer
vector 173 SingleCell_Standalone.ue[19].cellularNic.pdcpRrc sentPacketToUpperLayer:vector(packetBytes) ETV
attr interpolationmode none
attr recordingmode vector(packetBytes)
attr source sentPacketToUpperLayer
vector 174 SingleCell_Standalone.ue[19].udp packetReceived:vector(packetBytes) ETV
attr interpolationmode none
attr recordingmode vector(packetBytes)
attr source packetReceived
attr title "packets received, packetBytes"
vector 175 SingleCell_Standalone.ue[19].app[0] cbrFrameDelay:vector ETV
attr recordingmode vector
attr source cbrFrameDelaySignal
attr title "Cbr Frame Delay"
attr unit s
vector 176 SingleCell_Standalone.ue[19].app[0] cbrRcvdPkt:vector ETV
attr recordingmode vector
attr source cbrRcvdPkt
attr title "Received packet ID"
attr unit ""
vector 177 SingleCell_Standalone.gnb.cellularNic.mac sentPacketToLowerLayer:vector(packetBytes) ETV
attr interpolationmode none
attr recordingmode vector(packetBytes)
attr source sentPacketToLowerLayer
vector 178 SingleCell_Standalone.gnb.cellularNic.mac receivedPacketFromLowerLayer:vector(packetBytes) ETV
attr interpolationmode none
attr recordingmode vector(packetBytes)
attr source receivedPacketFromLowerLayer
vector 179 SingleCell_Standalone.ue[5].cellularNic.nrMac harqErrorRate_1st_Dl:vector ETV
attr recordingmode vector
attr source harqErrorRate_1st_Dl
attr title "Harq Error Rate Dl (1st tx)"
attr unit ""
vector 180 SingleCell_Standalone.ue[5].cellularNic.nrMac harqErrorRateDl:vector ETV
attr recordingmode vector
attr source harqErrorRateDl
attr title "Harq Error Rate Dl"
attr unit ""
vector 181 SingleCell_Standalone.ue[5].cellularNic.nrMac harqTxAttemptsDl:vector ETV
attr recordingmode vector
attr source harqTxAttemptsDl
attr title "Harq Tx Attempts Dl"
attr unit ""
vector 182 SingleCell_Standalone.ue[9].cellularNic.nrMac harqErrorRate_1st_Dl:vector ETV
attr recordingmode vector
attr source harqErrorRate_1st_Dl
attr title "Harq Error Rate Dl (1st tx)"
attr unit ""
vector 183 SingleCell_Standalone.ue[9].cellularNic.nrMac harqErrorRateDl:vector ETV
attr recordingmode vector
attr source harqErrorRateDl
attr title "Harq Error Rate Dl"
attr unit ""
vector 184 SingleCell_Standalone.ue[9].cellularNic.nrMac harqTxAttemptsDl:vector ETV
attr recordingmode vector
attr source harqTxAttemptsDl
attr title "Harq Tx Attempts Dl"
attr unit ""
vector 185 SingleCell_Standalone.ue[19].cellularNic.nrMac harqErrorRate_1st_Dl:vector ETV
attr recordingmode vector
attr source harqErrorRate_1st_Dl
attr title "Harq Error Rate Dl (1st tx)"
attr unit ""
vector 186 SingleCell_Standalone.ue[19].cellularNic.nrMac harqErrorRateDl:vector ETV
attr recordingmode vector
attr source harqErrorRateDl
attr title "Harq Error Rate Dl"
attr unit ""
vector 187 SingleCell_Standalone.ue[19].cellularNic.nrMac harqTxAttemptsDl:vector ETV
attr recordingmode vector
attr source harqTxAttemptsDl
attr title "Harq Tx Attempts Dl"
attr unit ""
vector 188 SingleCell_Standalone.ue[3].cellularNic.nrPhy averageCqiDl:vector ETV
attr recordingmode vector
attr source averageCqiDl
attr title "Average Cqi reported in DL"
attr unit cqi
vector 189 SingleCell_Standalone.ue[3].cellularNic.nrChannelModel[0] distance:vector ETV
attr recordingmode vector
attr source distance
attr title "distance between UE and serving base station"
attr unit meters
vector 190 SingleCell_Standalone.ue[3].cellularNic.nrChannelModel[0] rcvdSinrDl:vector ETV
attr recordingmode vector
attr source rcvdSinrDl
attr title "SINR measured at packet reception, DL"
attr unit dB
vector 191 SingleCell_Standalone.ue[3].cellularNic.nrMac receivedPacketFromLowerLayer:vector(packetBytes) ETV
attr interpolationmode none
attr recordingmode vector(packetBytes)
attr source receivedPacketFromLowerLayer
vector 192 SingleCell_Standalone.ue[7].cellularNic.nrPhy averageCqiDl:vector ETV
attr recordingmode vector
attr source averageCqiDl
attr title "Average Cqi reported in DL"
attr unit cqi
vector 193 SingleCell_Standalone.ue[7].cellularNic.nrChannelModel[0] distance:vector ETV
attr recordingmode vector
attr source distance
attr title "distance between UE and serving base station"
attr unit meters
vector 194 SingleCell_Standalone.ue[7].cellularNic.nrChannelModel[0] rcvdSinrDl:vector ETV
attr recordingmode vector
attr source rcvdSinrDl
attr title "SINR measured at packet reception, DL"
attr unit dB
vector 195 SingleCell_Standalone.ue[7].cellularNic.nrMac receivedPacketFromLowerLayer:vector(packetBytes) ETV
attr interpolationmode none
attr recordingmode vector(packetBytes)
attr source receivedPacketFromLowerLayer
vector 196 SingleCell_Standalone.ue[12].cellularNic.nrPhy averageCqiDl:vector ETV
attr recordingmode vector
attr source averageCqiDl
attr title "Average Cqi reported in DL"
attr unit cqi
vector 197 SingleCell_Standalone.ue[12].cellularNic.nrChannelModel[0] distance:vector ETV
attr recordingmode vector
attr source distance
attr title "distance between UE and serving base station"
attr unit meters
vector 198 SingleCell_Standalone.ue[12].cellularNic.nrChannelModel[0] rcvdSinrDl:vector ETV
attr recordingmode vector
attr source rcvdSinrDl
attr title "SINR measured at packet reception, DL"
attr unit dB
vector 199 SingleCell_Standalone.ue[12].cellularNic.nrMac receivedPacketFromLowerLayer:vector(packetBytes) ETV
attr interpolationmode none
attr recordingmode vector(packetBytes)
attr source receivedPacketFromLowerLayer
vector 200 SingleCell_Standalone.ue[14].cellularNic.nrPhy averageCqiDl:vector ETV
attr recordingmode vector
attr source averageCqiDl
attr title "Average Cqi reported in DL"
attr unit cqi
vector 201 SingleCell_Standalone.ue[14].cellularNic.nrChannelModel[1] distance:vector ETV
attr recordingmode vector
attr source distance
attr title "distance between UE and serving base station"
attr unit meters
vector 202 SingleCell_Standalone.ue[14].cellularNic.nrChannelModel[1] rcvdSinrDl:vector ETV
attr recordingmode vector
attr source rcvdSinrDl
attr title "SINR measured at packet reception, DL"
attr unit dB
vector 203 SingleCell_Standalone.ue[14].cellularNic.nrMac receivedPacketFromLowerLayer:vector(packetBytes) ETV
attr interpolationmode none
attr recordingmode vector(packetBytes)
attr source receivedPacketFromLowerLayer
vector 204 SingleCell_Standalone.ue[18].cellularNic.nrPhy averageCqiDl:vector ETV
attr recordingmode vector
attr source averageCqiDl
attr title "Average Cqi reported in DL"
attr unit cqi
vector 205 SingleCell_Standalone.ue[18].cellularNic.nrChannelModel[1] distance:vector ETV
attr recordingmode vector
attr source distance
attr title "distance between UE and serving base station"
attr unit meters
vector 206 SingleCell_Standalone.ue[18].cellularNic.nrChannelModel[1] rcvdSinrDl:vector ETV
attr recordingmode vector
attr source rcvdSinrDl
attr title "SINR measured at packet reception, DL"
attr unit dB
vector 207 SingleCell_Standalone.ue[18].cellularNic.nrMac receivedPacketFromLowerLayer:vector(packetBytes) ETV
attr interpolationmode none
attr recordingmode vector(packetBytes)
attr source receivedPacketFromLowerLayer
vector 208 SingleCell_Standalone.server.udp packetSent:vector(packetBytes) ETV
attr interpolationmode none
attr recordingmode vector(packetBytes)
attr source packetSent
attr title "packets sent, packetBytes"
vector 209 SingleCell_Standalone.server.ppp[0].queue incomingPacketLengths:vector ETV
attr interpolationmode none
attr recordingmode vector
attr source packetLength(packetPushStarted)
attr title "incoming packet lengths"
attr unit b
vector 210 SingleCell_Standalone.server.ppp[0].queue queueingTime:vector ETV
attr interpolationmode none
attr recordingmode vector
attr source queueingTime(packetPulled)
attr title "queueing times"
attr unit s
vector 211 SingleCell_Standalone.server.ppp[0].queue outgoingPacketLengths:vector ETV
attr interpolationmode none
attr recordingmode vector
attr source packetLength(packetPulled)
attr title "outgoing packet lengths"
attr unit b
vector 212 SingleCell_Standalone.server.ppp[0].ppp rcvdPkFromHl:vector(packetBytes) ETV
attr interpolationmode none
attr recordingmode vector(packetBytes)
attr source packetReceivedFromUpper
attr title "packets received from higher layer, packetBytes"
vector 213 SingleCell_Standalone.server.ppp[0].ppp transmissionState:vector ETV
attr interpolationmode sample-hold
attr recordingmode vector
attr source transmissionStateChanged
attr title "tx state"
vector 214 SingleCell_Standalone.server.ppp[0].ppp txPk:vector(packetBytes) ETV
attr interpolationmode none
attr recordingmode vector(packetBytes)
attr source packetSentToLower
attr title "packets transmitted, packetBytes"
vector 215 SingleCell_Standalone.router.ppp[0].ppp rxPkOk:vector(packetBytes) ETV
attr interpolationmode none
attr recordingmode vector(packetBytes)
attr source rxPkOk
attr title "packets received OK, packetBytes"
vector 216 SingleCell_Standalone.router.ppp[0].ppp passedUpPk:vector(packetBytes) ETV
attr interpolationmode none
attr recordingmode vector(packetBytes)
attr source packetSentToUpper
attr title "packets passed to higher layer, packetBytes"
vector 217 SingleCell_Standalone.router.ppp[1].queue incomingPacketLengths:vector ETV
attr interpolationmode none
attr recordingmode vector
attr source packetLength(packetPushStarted)
attr title "incoming packet lengths"
attr unit b
vector 218 SingleCell_Standalone.router.ppp[1].queue queueingTime:vector ETV
attr interpolationmode none
attr recordingmode vector
attr source queueingTime(packetPulled)
attr title "queueing times"
attr unit s
vector 219 SingleCell_Standalone.router.ppp[1].queue outgoingPacketLengths:vector ETV
attr interpolationmode none
attr recordingmode vector
attr source packetLength(packetPulled)
attr title "outgoing packet lengths"
attr unit b
vector 220 SingleCell_Standalone.router.ppp[1].ppp rcvdPkFromHl:vector(packetBytes) ETV
attr interpolationmode none
attr recordingmode vector(packetBytes)
attr source packetReceivedFromUpper
attr title "packets received from higher layer, packetBytes"
vector 221 SingleCell_Standalone.router.ppp[1].ppp transmissionState:vector ETV
attr interpolationmode sample-hold
attr recordingmode vector
attr source transmissionStateChanged
attr title "tx state"
vector 222 SingleCell_Standalone.router.ppp[1].ppp txPk:vector(packetBytes) ETV
attr interpolationmode none
attr recordingmode vector(packetBytes)
attr source packetSentToLower
attr title "packets transmitted, packetBytes"
vector 223 SingleCell_Standalone.upf.pppIf.ppp rxPkOk:vector(packetBytes) ETV
attr interpolationmode none
attr recordingmode vector(packetBytes)
attr source rxPkOk
attr title "packets received OK, packetBytes"
vector 224 SingleCell_Standalone.upf.pppIf.ppp passedUpPk:vector(packetBytes) ETV
attr interpolationmode none
attr recordingmode vector(packetBytes)
attr source packetSentToUpper
attr title "packets passed to higher layer, packetBytes"
vector 225 SingleCell_Standalone.upf.udp packetSent:vector(packetBytes) ETV
attr interpolationmode none
attr recordingmode vector(packetBytes)
attr source packetSent
attr title "packets sent, packetBytes"
vector 226 SingleCell_Standalone.upf.ppp[0].queue incomingPacketLengths:vector ETV
attr interpolationmode none
attr recordingmode vector
attr source packetLength(packetPushStarted)
attr title "incoming packet lengths"
attr unit b
vector 227 SingleCell_Standalone.upf.ppp[0].queue queueingTime:vector ETV
attr interpolationmode none
attr recordingmode vector
attr source queueingTime(packetPulled)
attr title "queueing times"
attr unit s
vector 228 SingleCell_Standalone.upf.ppp[0].queue outgoingPacketLengths:vector ETV
attr interpolationmode none
attr recordingmode vector
attr source packetLength(packetPulled)
attr title "outgoing packet lengths"
attr unit b
vector 229 SingleCell_Standalone.upf.ppp[0].ppp rcvdPkFromHl:vector(packetBytes) ETV
attr interpolationmode none
attr recordingmode vector(packetBytes)
attr source packetReceivedFromUpper
attr title "packets received from higher layer, packetBytes"
vector 230 SingleCell_Standalone.upf.ppp[0].ppp transmissionState:vector ETV
attr interpolationmode sample-hold
attr recordingmode vector
attr source transmissionStateChanged
attr title "tx state"
vector 231 SingleCell_Standalone.upf.ppp[0].ppp txPk:vector(packetBytes) ETV
attr interpolationmode none
attr recordingmode vector(packetBytes)
attr source packetSentToLower
attr title "packets transmitted, packetBytes"
vector 232 SingleCell_Standalone.iUpf.ppp[0].ppp rxPkOk:vector(packetBytes) ETV
attr interpolationmode none
attr recordingmode vector(packetBytes)
attr source rxPkOk
attr title "packets received OK, packetBytes"
vector 233 SingleCell_Standalone.iUpf.ppp[0].ppp passedUpPk:vector(packetBytes) ETV
attr interpolationmode none
attr recordingmode vector(packetBytes)
attr source packetSentToUpper
attr title "packets passed to higher layer, packetBytes"
vector 234 SingleCell_Standalone.iUpf.ppp[1].queue incomingPacketLengths:vector ETV
attr interpolationmode none
attr recordingmode vector
attr source packetLength(packetPushStarted)
attr title "incoming packet lengths"
attr unit b
vector 235 SingleCell_Standalone.iUpf.ppp[1].queue queueingTime:vector ETV
attr interpolationmode none
attr recordingmode vector
attr source queueingTime(packetPulled)
attr title "queueing times"
attr unit s
vector 236 SingleCell_Standalone.iUpf.ppp[1].queue outgoingPacketLengths:vector ETV
attr interpolationmode none
attr recordingmode vector
attr source packetLength(packetPulled)
attr title "outgoing packet lengths"
attr unit b
vector 237 SingleCell_Standalone.iUpf.ppp[1].ppp rcvdPkFromHl:vector(packetBytes) ETV
attr interpolationmode none
attr recordingmode vector(packetBytes)
attr source packetReceivedFromUpper
attr title "packets received from higher layer, packetBytes"
vector 238 SingleCell_Standalone.iUpf.ppp[1].ppp transmissionState:vector ETV
attr interpolationmode sample-hold
attr recordingmode vector
attr source transmissionStateChanged
attr title "tx state"
vector 239 SingleCell_Standalone.iUpf.ppp[1].ppp txPk:vector(packetBytes) ETV
attr interpolationmode none
attr recordingmode vector(packetBytes)
attr source packetSentToLower
attr title "packets transmitted, packetBytes"
vector 240 SingleCell_Standalone.gnb.pppIf.ppp rxPkOk:vector(packetBytes) ETV
attr interpolationmode none
attr recordingmode vector(packetBytes)
attr source rxPkOk
attr title "packets received OK, packetBytes"
vector 241 SingleCell_Standalone.gnb.pppIf.ppp passedUpPk:vector(packetBytes) ETV
attr interpolationmode none
attr recordingmode vector(packetBytes)
attr source packetSentToUpper
attr title "packets passed to higher layer, packetBytes"
vector 242 SingleCell_Standalone.gnb.udp packetReceived:vector(packetBytes) ETV
attr interpolationmode none
attr recordingmode vector(packetBytes)
attr source packetReceived
attr title "packets received, packetBytes"
vector 243 SingleCell_Standalone.gnb.cellularNic.pdcpRrc receivedPacketFromUpperLayer:vector(packetBytes) ETV
attr interpolationmode none
attr recordingmode vector(packetBytes)
attr source receivedPacketFromUpperLayer
vector 244 SingleCell_Standalone.gnb.cellularNic.pdcpRrc sentPacketToLowerLayer:vector(packetBytes) ETV
attr interpolationmode none
attr recordingmode vector(packetBytes)
attr source sentPacketToLowerLayer
vector 245 SingleCell_Standalone.gnb.cellularNic.rlc.um receivedPacketFromUpperLayer:vector(packetBytes) ETV
attr interpolationmode none
attr recordingmode vector(packetBytes)
attr source receivedPacketFromUpperLayer
vector 246 SingleCell_Standalone.ue[12].cellularNic.nrMac sentPacketToLowerLayer:vector(packetBytes) ETV
attr interpolationmode none
attr recordingmode vector(packetBytes)
attr source sentPacketToLowerLayer
vector 247 SingleCell_Standalone.ue[12].cellularNic.nrMac sentPacketToUpperLayer:vector(packetBytes) ETV
attr interpolationmode none
attr recordingmode vector(packetBytes)
attr source sentPacketToUpperLayer
vector 248 SingleCell_Standalone.ue[12].cellularNic.nrRlc.um receivedPacketFromLowerLayer:vector(packetBytes) ETV
attr interpolationmode none
attr recordingmode vector(packetBytes)
attr source receivedPacketFromLowerLayer
vector 249 SingleCell_Standalone.ue[12].cellularNic.nrRlc.um rlcPduThroughputDl:vector ETV
attr recordingmode vector
attr source rlcPduThroughputDl
attr title "Throughput at the rlc layer DL"
attr unit Bps
vector 250 SingleCell_Standalone.ue[12].cellularNic.nrRlc.um rlcPduDelayDl:vector ETV
attr recordingmode vector
attr source rlcPduDelayDl
attr title "Delay at the rlc layer UL"
attr unit s
vector 251 SingleCell_Standalone.ue[12].cellularNic.nrRlc.um rlcPduPacketLossDl:vector ETV
attr recordingmode vector
attr source rlcPduPacketLossDl
attr title "rlc Packet Loss"
attr unit ""
vector 252 SingleCell_Standalone.ue[16].cellularNic.nrMac sentPacketToLowerLayer:vector(packetBytes) ETV
attr interpolationmode none
attr recordingmode vector(packetBytes)
attr source sentPacketToLowerLayer
vector 253 SingleCell_Standalone.ue[16].cellularNic.nrMac sentPacketToUpperLayer:vector(packetBytes) ETV
attr interpolationmode none
attr recordingmode vector(packetBytes)
attr source sentPacketToUpperLayer
vector 254 SingleCell_Standalone.ue[16].cellularNic.nrRlc.um receivedPacketFromLowerLayer:vector(packetBytes) ETV
attr interpolationmode none
attr recordingmode vector(packetBytes)
attr source receivedPacketFromLowerLayer
vector 255 SingleCell_Standalone.ue[16].cellularNic.nrRlc.um rlcPduThroughputDl:vector ETV
attr recordingmode vector
attr source rlcPduThroughputDl
attr title "Throughput at the rlc layer DL"
attr unit Bps
vector 256 SingleCell_Standalone.ue[16].cellularNic.nrRlc.um rlcPduDelayDl:vector ETV
attr recordingmode vector
attr source rlcPduDelayDl
attr title "Delay at the rlc layer UL"
attr unit s
vector 257 SingleCell_Standalone.ue[16].cellularNic.nrRlc.um rlcPduPacketLossDl:vector ETV
attr recordingmode vector
attr source rlcPduPacketLossDl
attr title "rlc Packet Loss"
attr unit ""
vector 258 SingleCell_Standalone.ue[1].cellularNic.nrMac harqErrorRate_1st_Dl:vector ETV
attr recordingmode vector
attr source harqErrorRate_1st_Dl
attr title "Harq Error Rate Dl (1st tx)"
attr unit ""
vector 259 SingleCell_Standalone.ue[1].cellularNic.nrMac harqErrorRateDl:vector ETV
attr recordingmode vector
attr source harqErrorRateDl
attr title "Harq Error Rate Dl"
attr unit ""
vector 260 SingleCell_Standalone.ue[1].cellularNic.nrMac harqTxAttemptsDl:vector ETV
attr recordingmode vector
attr source harqTxAttemptsDl
attr title "Harq Tx Attempts Dl"
attr unit ""
vector 261 SingleCell_Standalone.ue[13].cellularNic.nrMac harqErrorRate_1st_Dl:vector ETV
attr recordingmode vector
attr source harqErrorRate_1st_Dl
attr title "Harq Error Rate Dl (1st tx)"
attr unit ""
vector 262 SingleCell_Standalone.ue[13].cellularNic.nrMac harqErrorRateDl:vector ETV
attr recordingmode vector
attr source harqErrorRateDl
attr title "Harq Error Rate Dl"
attr unit ""
vector 263 SingleCell_Standalone.ue[13].cellularNic.nrMac harqTxAttemptsDl:vector ETV
attr recordingmode vector
attr source harqTxAttemptsDl
attr title "Harq Tx Attempts Dl"
attr unit ""
vector 264 SingleCell_Standalone.ue[14].cellularNic.nrMac harqErrorRate_1st_Dl:vector ETV
attr recordingmode vector
attr source harqErrorRate_1st_Dl
attr title "Harq Error Rate Dl (1st tx)"
attr unit ""
vector 265 SingleCell_Standalone.ue[14].cellularNic.nrMac harqErrorRateDl:vector ETV
attr recordingmode vector
attr source harqErrorRateDl
attr title "Harq Error Rate Dl"
attr unit ""
vector 266 SingleCell_Standalone.ue[14].cellularNic.nrMac harqTxAttemptsDl:vector ETV
attr recordingmode vector
attr source harqTxAttemptsDl
attr title "Harq Tx Attempts Dl"
attr unit ""
vector 267 SingleCell_Standalone.bgCell[0].bgTrafficGenerator.bgUE[0].generator bgMeasuredSinrDl:vector ETV
attr recordingmode vector
attr source bgMeasuredSinrDl
attr title "Average DL SINR for background UEs"
attr unit ""
vector 268 SingleCell_Standalone.bgCell[0].bgTrafficGenerator.bgUE[1].generator bgMeasuredSinrDl:vector ETV
attr recordingmode vector
attr source bgMeasuredSinrDl
attr title "Average DL SINR for background UEs"
attr unit ""
vector 269 SingleCell_Standalone.bgCell[0].bgTrafficGenerator.bgUE[2].generator bgMeasuredSinrDl:vector ETV
attr recordingmode vector
attr source bgMeasuredSinrDl
attr title "Average DL SINR for background UEs"
attr unit ""
vector 270 SingleCell_Standalone.bgCell[0].bgTrafficGenerator.bgUE[3].generator bgMeasuredSinrDl:vector ETV
attr recordingmode vector
attr source bgMeasuredSinrDl
attr title "Average DL SINR for background UEs"
attr unit ""
vector 271 SingleCell_Standalone.bgCell[0].bgTrafficGenerator.bgUE[4].generator bgMeasuredSinrDl:vector ETV
attr recordingmode vector
attr source bgMeasuredSinrDl
attr title "Average DL SINR for background UEs"
attr unit ""
vector 272 SingleCell_Standalone.bgCell[0].bgTrafficGenerator.bgUE[5].generator bgMeasuredSinrDl:vector ETV
attr recordingmode vector
attr source bgMeasuredSinrDl
attr title "Average DL SINR for background UEs"
attr unit ""
vector 273 SingleCell_Standalone.bgCell[0].bgTrafficGenerator.bgUE[6].generator bgMeasuredSinrDl:vector ETV
attr recordingmode vector
attr source bgMeasuredSinrDl
attr title "Average DL SINR for background UEs"
attr unit ""
vector 274 SingleCell_Standalone.bgCell[0].bgTrafficGenerator.bgUE[7].generator bgMeasuredSinrDl:vector ETV
attr recordingmode vector
attr source bgMeasuredSinrDl
attr title "Average DL SINR for background UEs"
attr unit ""
vector 275 SingleCell_Standalone.bgCell[0].bgTrafficGenerator.bgUE[8].generator bgMeasuredSinrDl:vector ETV
attr recordingmode vector
attr source bgMeasuredSinrDl
attr title "Average DL SINR for background UEs"
attr unit ""
vector 276 SingleCell_Standalone.bgCell[0].bgTrafficGenerator.bgUE[9].generator bgMeasuredSinrDl:vector ETV
attr recordingmode vector
attr source bgMeasuredSinrDl
attr title "Average DL SINR for background UEs"
attr unit ""
vector 277 SingleCell_Standalone.bgCell[1].bgTrafficGenerator.bgUE[0].generator bgMeasuredSinrDl:vector ETV
attr recordingmode vector
attr source bgMeasuredSinrDl
attr title "Average DL SINR for background UEs"
attr unit ""
vector 278 SingleCell_Standalone.bgCell[1].bgTrafficGenerator.bgUE[1].generator bgMeasuredSinrDl:vector ETV
attr recordingmode vector
attr source bgMeasuredSinrDl
attr title "Average DL SINR for background UEs"
attr unit ""
vector 279 SingleCell_Standalone.bgCell[1].bgTrafficGenerator.bgUE[2].generator bgMeasuredSinrDl:vector ETV
attr recordingmode vector
attr source bgMeasuredSinrDl
attr title "Average DL SINR for background UEs"
attr unit ""
vector 280 SingleCell_Standalone.bgCell[1].bgTrafficGenerator.bgUE[3].generator bgMeasuredSinrDl:vector ETV
attr recordingmode vector
attr source bgMeasuredSinrDl
attr title "Average DL SINR for background UEs"
attr unit ""
vector 281 SingleCell_Standalone.bgCell[1].bgTrafficGenerator.bgUE[4].generator bgMeasuredSinrDl:vector ETV
attr recordingmode vector
attr source bgMeasuredSinrDl
attr title "Average DL SINR for background UEs"
attr unit ""
vector 282 SingleCell_Standalone.bgCell[1].bgTrafficGenerator.bgUE[5].generator bgMeasuredSinrDl:vector ETV
attr recordingmode vector
attr source bgMeasuredSinrDl
attr title "Average DL SINR for background UEs"
attr unit ""
vector 283 SingleCell_Standalone.bgCell[1].bgTrafficGenerator.bgUE[6].generator bgMeasuredSinrDl:vector ETV
attr recordingmode vector
attr source bgMeasuredSinrDl
attr title "Average DL SINR for background UEs"
attr unit ""
vector 284 SingleCell_Standalone.bgCell[1].bgTrafficGenerator.bgUE[7].generator bgMeasuredSinrDl:vector ETV
attr recordingmode vector
attr source bgMeasuredSinrDl
attr title "Average DL SINR for background UEs"
attr unit ""
vector 285 SingleCell_Standalone.bgCell[1].bgTrafficGenerator.bgUE[8].generator bgMeasuredSinrDl:vector ETV
attr recordingmode vector
attr source bgMeasuredSinrDl
attr title "Average DL SINR for background UEs"
attr unit ""
vector 286 SingleCell_Standalone.bgCell[1].bgTrafficGenerator.bgUE[9].generator bgMeasuredSinrDl:vector ETV
attr recordingmode vector
attr source bgMeasuredSinrDl
attr title "Average DL SINR for background UEs"
attr unit ""
vector 287 SingleCell_Standalone.bgCell[0].bgTrafficGenerator.bgUE[2].generator bgAverageCqiDl:vector ETV
attr recordingmode vector
attr source bgAverageCqiDl
attr title "Average DL CQI for background UEs"
attr unit ""
vector 288 SingleCell_Standalone.bgCell[0].bgTrafficGenerator.bgUE[2].generator bgHarqErrorRateDl:vector ETV
attr recordingmode vector
attr source bgHarqErrorRateDl
attr title "Average DL HARQ error rate for background UEs"
attr unit ""
vector 289 SingleCell_Standalone.ue[7].cellularNic.nrMac sentPacketToLowerLayer:vector(packetBytes) ETV
attr interpolationmode none
attr recordingmode vector(packetBytes)
attr source sentPacketToLowerLayer
vector 290 SingleCell_Standalone.ue[7].cellularNic.nrMac sentPacketToUpperLayer:vector(packetBytes) ETV
attr interpolationmode none
attr recordingmode vector(packetBytes)
attr source sentPacketToUpperLayer
vector 291 SingleCell_Standalone.ue[7].cellularNic.nrRlc.um receivedPacketFromLowerLayer:vector(packetBytes) ETV
attr interpolationmode none
attr recordingmode vector(packetBytes)
attr source receivedPacketFromLowerLayer
vector 292 SingleCell_Standalone.ue[7].cellularNic.nrRlc.um rlcPduThroughputDl:vector ETV
attr recordingmode vector
attr source rlcPduThroughputDl
attr title "Throughput at the rlc layer DL"
attr unit Bps
vector 293 SingleCell_Standalone.ue[7].cellularNic.nrRlc.um rlcPduDelayDl:vector ETV
attr recordingmode vector
attr source rlcPduDelayDl
attr title "Delay at the rlc layer UL"
attr unit s
vector 294 SingleCell_Standalone.ue[7].cellularNic.nrRlc.um rlcPduPacketLossDl:vector ETV
attr recordingmode vector
attr source rlcPduPacketLossDl
attr title "rlc Packet Loss"
attr unit ""
vector 295 SingleCell_Standalone.ue[16].cellularNic.nrRlc.um rlcThroughputDl:vector ETV
attr recordingmode vector
attr source rlcThroughputDl
attr title "Throughput at the rlc layer DL"
attr unit Bps
vector 296 SingleCell_Standalone.ue[16].cellularNic.nrRlc.um rlcPacketLossDl:vector ETV
attr recordingmode vector
attr source rlcPacketLossDl
attr title "rlc Packet Loss"
attr unit ""
vector 297 SingleCell_Standalone.ue[16].cellularNic.nrRlc.um rlcPacketLossTotal:vector ETV
attr recordingmode vector
attr source rlcPacketLossTotal
attr title "rlc Packet Loss"
attr unit ""
vector 298 SingleCell_Standalone.ue[16].cellularNic.nrRlc.um rlcDelayDl:vector ETV
attr recordingmode vector
attr source rlcDelayDl
attr title "Delay at the rlc layer DL"
attr unit s
vector 299 SingleCell_Standalone.ue[16].cellularNic.nrRlc.um sentPacketToUpperLayer:vector(packetBytes) ETV
attr interpolationmode none
attr recordingmode vector(packetBytes)
attr source sentPacketToUpperLayer
vector 300 SingleCell_Standalone.ue[16].cellularNic.pdcpRrc receivedPacketFromLowerLayer:vector(packetBytes) ETV
attr interpolationmode none
attr recordingmode vector(packetBytes)
attr source receivedPacketFromLowerLayer
vector 301 SingleCell_Standalone.ue[16].cellularNic.pdcpRrc sentPacketToUpperLayer:vector(packetBytes) ETV
attr interpolationmode none
attr recordingmode vector(packetBytes)
attr source sentPacketToUpperLayer
vector 302 SingleCell_Standalone.ue[16].udp packetReceived:vector(packetBytes) ETV
attr interpolationmode none
attr recordingmode vector(packetBytes)
attr source packetReceived
attr title "packets received, packetBytes"
vector 303 SingleCell_Standalone.ue[16].app[0] cbrReceivedBytes:vector ETV
attr recordingmode vector
attr source cbrReceivedBytesSignal
attr title "Bytes received at the application level"
attr unit Bps
vector 304 SingleCell_Standalone.ue[16].app[0] cbrFrameDelay:vector ETV
attr recordingmode vector
attr source cbrFrameDelaySignal
attr title "Cbr Frame Delay"
attr unit s
vector 305 SingleCell_Standalone.ue[16].app[0] cbrRcvdPkt:vector ETV
attr recordingmode vector
attr source cbrRcvdPkt
attr title "Received packet ID"
attr unit ""
vector 306 SingleCell_Standalone.ue[12].cellularNic.nrMac harqErrorRate_1st_Dl:vector ETV
attr recordingmode vector
attr source harqErrorRate_1st_Dl
attr title "Harq Error Rate Dl (1st tx)"
attr unit ""
vector 307 SingleCell_Standalone.ue[12].cellularNic.nrMac harqErrorRateDl:vector ETV
attr recordingmode vector
attr source harqErrorRateDl
attr title "Harq Error Rate Dl"
attr unit ""
vector 308 SingleCell_Standalone.ue[12].cellularNic.nrMac harqTxAttemptsDl:vector ETV
attr recordingmode vector
attr source harqTxAttemptsDl
attr title "Harq Tx Attempts Dl"
attr unit ""
vector 309 SingleCell_Standalone.ue[16].cellularNic.nrMac harqErrorRate_1st_Dl:vector ETV
attr recordingmode vector
attr source harqErrorRate_1st_Dl
attr title "Harq Error Rate Dl (1st tx)"
attr unit ""
vector 310 SingleCell_Standalone.ue[16].cellularNic.nrMac harqErrorRateDl:vector ETV
attr recordingmode vector
attr source harqErrorRateDl
attr title "Harq Error Rate Dl"
attr unit ""
vector 311 SingleCell_Standalone.ue[16].cellularNic.nrMac harqTxAttemptsDl:vector ETV
attr recordingmode vector
attr source harqTxAttemptsDl
attr title "Harq Tx Attempts Dl"
attr unit ""
vector 312 SingleCell_Standalone.ue[4].cellularNic.nrPhy averageCqiDl:vector ETV
attr recordingmode vector
attr source averageCqiDl
attr title "Average Cqi reported in DL"
attr unit cqi
vector 313 SingleCell_Standalone.ue[4].cellularNic.nrChannelModel[0] distance:vector ETV
attr recordingmode vector
attr source distance
attr title "distance between UE and serving base station"
attr unit meters
vector 314 SingleCell_Standalone.ue[4].cellularNic.nrChannelModel[0] rcvdSinrDl:vector ETV
attr recordingmode vector
attr source rcvdSinrDl
attr title "SINR measured at packet reception, DL"
attr unit dB
vector 315 SingleCell_Standalone.ue[4].cellularNic.nrMac receivedPacketFromLowerLayer:vector(packetBytes) ETV
attr interpolationmode none
attr recordingmode vector(packetBytes)
attr source receivedPacketFromLowerLayer
vector 316 SingleCell_Standalone.ue[6].cellularNic.nrPhy averageCqiDl:vector ETV
attr recordingmode vector
attr source averageCqiDl
attr title "Average Cqi reported in DL"
attr unit cqi
vector 317 SingleCell_Standalone.ue[6].cellularNic.nrChannelModel[1] distance:vector ETV
attr recordingmode vector
attr source distance
attr title "distance between UE and serving base station"
attr unit meters
vector 318 SingleCell_Standalone.ue[6].cellularNic.nrChannelModel[1] rcvdSinrDl:vector ETV
attr recordingmode vector
attr source rcvdSinrDl
attr title "SINR measured at packet reception, DL"
attr unit dB
vector 319 SingleCell_Standalone.ue[6].cellularNic.nrMac receivedPacketFromLowerLayer:vector(packetBytes) ETV
attr interpolationmode none
attr recordingmode vector(packetBytes)
attr source receivedPacketFromLowerLayer
vector 320 SingleCell_Standalone.bgCell[1].bgTrafficGenerator.bgUE[9].generator bgAverageCqiDl:vector ETV
attr recordingmode vector
attr source bgAverageCqiDl
attr title "Average DL CQI for background UEs"
attr unit ""
vector 321 SingleCell_Standalone.bgCell[1].bgTrafficGenerator.bgUE[9].generator bgHarqErrorRateDl:vector ETV
attr recordingmode vector
attr source bgHarqErrorRateDl
attr title "Average DL HARQ error rate for background UEs"
attr unit ""
vector 322 SingleCell_Standalone.ue[3].cellularNic.nrMac sentPacketToLowerLayer:vector(packetBytes) ETV
attr interpolationmode none
attr recordingmode vector(packetBytes)
attr source sentPacketToLowerLayer
vector 323 SingleCell_Standalone.ue[3].cellularNic.nrMac sentPacketToUpperLayer:vector(packetBytes) ETV
attr interpolationmode none
attr recordingmode vector(packetBytes)
attr source sentPacketToUpperLayer
vector 324 SingleCell_Standalone.ue[3].cellularNic.nrRlc.um receivedPacketFromLowerLayer:vector(packetBytes) ETV
attr interpolationmode none
attr recordingmode vector(packetBytes)
attr source receivedPacketFromLowerLayer
vector 325 SingleCell_Standalone.ue[3].cellularNic.nrRlc.um rlcPduThroughputDl:vector ETV
attr recordingmode vector
attr source rlcPduThroughputDl
attr title "Throughput at the rlc layer DL"
attr unit Bps
vector 326 SingleCell_Standalone.ue[3].cellularNic.nrRlc.um rlcPduDelayDl:vector ETV
attr recordingmode vector
attr source rlcPduDelayDl
attr title "Delay at the rlc layer UL"
attr unit s
vector 327 SingleCell_Standalone.ue[3].cellularNic.nrRlc.um rlcPduPacketLossDl:vector ETV
attr recordingmode vector
attr source rlcPduPacketLossDl
attr title "rlc Packet Loss"
attr unit ""
vector 328 SingleCell_Standalone.ue[7].cellularNic.nrRlc.um rlcThroughputDl:vector ETV
attr recordingmode vector
attr source rlcThroughputDl
attr title "Throughput at the rlc layer DL"
attr unit Bps
vector 329 SingleCell_Standalone.ue[7].cellularNic.nrRlc.um rlcPacketLossDl:vector ETV
attr recordingmode vector
attr source rlcPacketLossDl
attr title "rlc Packet Loss"
attr unit ""
vector 330 SingleCell_Standalone.ue[7].cellularNic.nrRlc.um rlcPacketLossTotal:vector ETV
attr recordingmode vector
attr source rlcPacketLossTotal
attr title "rlc Packet Loss"
attr unit ""
vector 331 SingleCell_Standalone.ue[7].cellularNic.nrRlc.um rlcDelayDl:vector ETV
attr recordingmode vector
attr source rlcDelayDl
attr title "Delay at the rlc layer DL"
attr unit s
vector 332 SingleCell_Standalone.ue[7].cellularNic.nrRlc.um sentPacketToUpperLayer:vector(packetBytes) ETV
attr interpolationmode none
attr recordingmode vector(packetBytes)
attr source sentPacketToUpperLayer
vector 333 SingleCell_Standalone.ue[7].cellularNic.pdcpRrc receivedPacketFromLowerLayer:vector(packetBytes) ETV
attr interpolationmode none
attr recordingmode vector(packetBytes)
attr source receivedPacketFromLowerLayer
vector 334 SingleCell_Standalone.ue[7].cellularNic.pdcpRrc sentPacketToUpperLayer:vector(packetBytes) ETV
attr interpolationmode none
attr recordingmode vector(packetBytes)
attr source sentPacketToUpperLayer
vector 335 SingleCell_Standalone.ue[7].udp packetReceived:vector(packetBytes) ETV
attr interpolationmode none
attr recordingmode vector(packetBytes)
attr source packetReceived
attr title "packets received, packetBytes"
vector 336 SingleCell_Standalone.ue[7].app[0] cbrReceivedBytes:vector ETV
attr recordingmode vector
attr source cbrReceivedBytesSignal
attr title "Bytes received at the application level"
attr unit Bps
vector 337 SingleCell_Standalone.ue[7].app[0] cbrFrameDelay:vector ETV
attr recordingmode vector
attr source cbrFrameDelaySignal
attr title "Cbr Frame Delay"
attr unit s
vector 338 SingleCell_Standalone.ue[7].app[0] cbrRcvdPkt:vector ETV
attr recordingmode vector
attr source cbrRcvdPkt
attr title "Received packet ID"
attr unit ""
vector 339 SingleCell_Standalone.ue[12].cellularNic.nrRlc.um rlcThroughputDl:vector ETV
attr recordingmode vector
attr source rlcThroughputDl
attr title "Throughput at the rlc layer DL"
attr unit Bps
vector 340 SingleCell_Standalone.ue[12].cellularNic.nrRlc.um rlcPacketLossDl:vector ETV
attr recordingmode vector
attr source rlcPacketLossDl
attr title "rlc Packet Loss"
attr unit ""
vector 341 SingleCell_Standalone.ue[12].cellularNic.nrRlc.um rlcPacketLossTotal:vector ETV
attr recordingmode vector
[...]
456	52882762 12798 1345798 1726517 7.796 9.998 368 25.394170316986 25.394170316986 9345.0546766508 237309.91008042
457	52895560 12798 1345800 1726519 7.796 9.998 368 26.617916466916 26.617916466916 9795.393259825 260732.95955061
458	52908358 12798 1345800 1726519 7.796 9.998 368 44.385091117689 44.385091117689 16333.713531309 724973.36337739
459	52921156 12798 1345802 1726521 7.796 9.998 368 11.286917776887 11.286917776887 4153.5857418943 46881.180748011
460	52933954 12798 1345802 1726521 7.796 9.998 368 40.096985263481 40.096985263481 14755.690576961 591658.70761689
461	52946752 10731 1345616 1725931 7.795 9.995 511 0 0 0 0
462	52957483 10731 1345616 1725931 7.795 9.995 511 0 0 0 0
463	52968214 10731 1345616 1725931 7.795 9.995 511 1 1 511 511
464	52978945 10724 1345622 1725937 7.795 9.995 511 0 0 0 0
465	52989669 10724 1345622 1725937 7.795 9.995 511 0 0 0 0
466	53000393 10724 1345622 1725937 7.795 9.995 511 1 1 511 511
467	53011117 9746 1345629 1726080 7.795 9.996 443 14 15 6611 98689
468	53020863 14315 1345629 1726080 7.795 9.996 409 450.86958970353 450.86958970353 184405.66218874 83142905.250045
469	53035178 14143 1345629 1726080 7.795 9.996 409 29.519787185068 36.415214775928 12998.972896211 413587.65303491
470	53049321 10189 1345630 1726081 7.795 9.996 443 167 870 228315 166587565
471	53059510 9323 1345662 1726012 7.796 9.996 444 1 1 444 444
472	53068833 10211 1345662 1726012 7.796 9.996 444 165 868 227431 167273805
473	53079044 10211 1345665 1726015 7.796 9.996 444 165 868 227431 167273805
474	53089255 9323 1345665 1726015 7.796 9.996 444 0 0 0 0
475	53098578 11099 1345665 1726015 7.796 9.996 444 0.004 0.004 1.776 0.0071040000000001
476	53109677 9323 1345665 1726015 7.796 9.996 444 0 0 0 0
477	53119000 9302 1345674 1726024 7.796 9.996 443 1 1 443 443
478	53128302 10188 1345674 1726024 7.796 9.996 443 165 868 227429 167466185
479	53138490 10188 1345677 1726027 7.796 9.996 443 165 868 227429 167466185
480	53148678 9302 1345677 1726027 7.796 9.996 443 0 0 0 0
481	53157980 11074 1345677 1726027 7.796 9.996 443 0.004 0.004 1.772 0.0070880000000001
482	53169054 9302 1345677 1726027 7.796 9.996 443 0 0 0 0
483	53178356 9746 1345623 1725938 7.795 9.995 443 15 15 6645 99675
484	53188102 12614 1345623 1725938 7.795 9.995 371 107.4666418322 107.4666418322 39870.124119747 4284708.3485823
485	53200716 12985 1345623 1725938 7.795 9.995 371 49.685867319229 56.282517313964 19747.011128377 1052796.2337626
486	53213701 10189 1345624 1725939 7.795 9.995 443 167 870 228315 158490993
487	53223890 9724 1345631 1726531 7.795 9.998 442 14 14 6188 86632
488	53233614 15470 1345631 1726531 7.795 9.998 442 262.94376123292 262.94376123292 116221.14246495 30559624.334522
489	53249084 15470 1345631 1726531 7.795 9.998 442 24.734846935909 28.646587587212 11895.047952334 320645.2817304
490	53264554 10166 1345632 1726532 7.795 9.998 442 191 846 229177 131590145
491	53274720 3965 1346393 1723226 7.8 9.98 117 59577.309236948 61160.111535075 7040625.9589184 423698573373.42
492	53278685 2380 1346393 1723226 7.8 9.98 117 0 0 0 0
493	53281065 2380 1346393 1723226 7.8 9.98 117 0 0 0 0
494	53283445 3901 1346393 1723226 7.8 9.98 117 3.745720273574 4.765720273574 499.58927200816 2143.1918742021
495	53287346 2731 1346393 1723226 7.8 9.98 117 1029 1029 120393 123884397
496	53290077 2731 1346394 1723227 7.8 9.98 117 1029 1029 120393 123884397
497	53292808 2731 1346394 1723227 7.8 9.98 117 1028 1028 120276 123643728
498	53295539 2731 1346397 1723230 7.8 9.98 117 1008 1008 117936 118879488
499	53298270 2731 1346398 1723231 7.8 9.98 117 1000 1000 117000 117000000
500	53301001 3901 1346398 1723231 7.8 9.98 117 3.745723843174 4.765723843174 499.58968965136 2143.1954408713
501	53304902 2614 1346398 1723231 7.8 9.98 117 403 519 53937 24998415
502	53307516 7711 1345665 1726015 7.796 9.996 221 114040.43216752 117647.58681577 25563928.820592 2957318308498.4
503	53315227 4640 1345665 1726015 7.796 9.996 221 0 0 0 0
504	53319867 4640 1345665 1726015 7.796 9.996 221 0 0 0 0
505	53324507 7513 1345665 1726015 7.796 9.996 221 0.005070190714 0.009070190714 1.166512147794 0.0062336678323574
506	53332020 5303 1345665 1726015 7.796 9.996 221 1029 1029 227409 234003861
507	53337323 5303 1345666 1726016 7.796 9.996 221 1029 1029 227409 234003861
508	53342626 5303 1345666 1726016 7.796 9.996 221 1028 1028 227188 233549264
509	53347929 5303 1345669 1726019 7.796 9.996 221 1008 1008 222768 224550144
510	53353232 5303 1345670 1726020 7.796 9.996 221 1000 1000 221000 221000000
511	53358535 7513 1345670 1726020 7.796 9.996 221 0.005073760314 0.009073760314 1.167301029394 0.0062419986118746
512	53366048 5082 1345670 1726020 7.796 9.996 221 776 996 195806 174383586
513	53371130 7703 1345677 1726027 7.796 9.996 221 114155.40240107 117798.99941142 25592978.960524 2964047747114.6
514	53378833 4640 1345677 1726027 7.796 9.996 221 0 0 0 0
515	53383473 4640 1345677 1726027 7.796 9.996 221 0 0 0 0
516	53388113 7513 1345677 1726027 7.796 9.996 221 0.005975607061 0.009975607061 1.362609160481 0.0084633924173155
517	53395626 5303 1345677 1726027 7.796 9.996 221 1029 1029 227409 234003861
518	53400929 5303 1345678 1726028 7.796 9.996 221 1029 1029 227409 234003861
519	53406232 5303 1345678 1726028 7.796 9.996 221 1028 1028 227188 233549264
520	53411535 5303 1345681 1726031 7.796 9.996 221 1008 1008 222768 224550144
521	53416838 5303 1345682 1726032 7.796 9.996 221 1000 1000 221000 221000000
522	53422141 7513 1345682 1726032 7.796 9.996 221 0.005979176661 0.009979176661 1.363398042081 0.0084731231726258
523	53429654 5082 1345682 1726032 7.796 9.996 221 777 997 196027 174775419
524	53434736 9608 1345712 1726280 7.796 9.997 458 1 1 458 458
525	53444344 10524 1345712 1726280 7.796 9.997 458 165 868 228325 150651029
526	53454868 10524 1345715 1726283 7.796 9.997 458 165 868 228325 150651029
527	53465392 9608 1345715 1726283 7.796 9.997 458 0 0 0 0
528	53475000 11440 1345715 1726283 7.796 9.997 458 0.004 0.004 1.832 0.0073280000000001
529	53486440 9608 1345715 1726283 7.796 9.997 458 0 0 0 0
530	53496048 7664 1347137 1725723 7.804 9.994 220 114002.66963293 117660.49382716 25450038.209715 2944348263807.2
531	53503712 4612 1347137 1725723 7.804 9.994 220 0 0 0 0
532	53508324 4612 1347137 1725723 7.804 9.994 220 0 0 0 0
533	53512936 7472 1347137 1725723 7.804 9.994 220 0.006315240686 0.016315240686 1.84335295092 0.016272336825752
534	53520408 5272 1347137 1725723 7.804 9.994 220 1029 1029 226380 232945020
535	53525680 5272 1347138 1725724 7.804 9.994 220 1029 1029 226380 232945020
536	53530952 5272 1347138 1725724 7.804 9.994 220 1028 1028 226160 232492480
537	53536224 5272 1347141 1725727 7.804 9.994 220 1008 1008 221760 223534080
538	53541496 5272 1347142 1725728 7.804 9.994 220 1000 1000 220000 220000000
539	53546768 7472 1347142 1725728 7.804 9.994 220 0.006318810286 0.016318810286 1.84413826292 0.016285499694389
540	53554240 5052 1347142 1725728 7.804 9.994 220 777 996 195030 173781410
541	53559292 9343 1345805 1726301 7.796 9.997 445 0 0 0 0
542	53568635 9343 1345805 1726301 7.796 9.997 445 0 0 0 0
543	53577978 9343 1345805 1726301 7.796 9.997 445 1 1 445 445
544	53587321 9323 1345807 1726303 7.796 9.997 444 0 0 0 0
545	53596644 9323 1345807 1726303 7.796 9.997 444 0 0 0 0
546	53605967 9323 1345807 1726303 7.796 9.997 444 1 1 444 444
547	53615290 10472 1345810 1726308 7.796 9.997 476 14 15 7065 104925
548	53625762 14035 1346008 1726308 7.797 9.997 401 412.15049139181 412.15049139181 165272.34704812 68117079.049359
549	53639797 14017 1346008 1726308 7.797 9.997 401 26.589251445432 39.888970185106 13671.027987491 467505.73745578
550	53653814 10943 1345811 1726309 7.796 9.997 476 30 870 231661 153078089
551	53664757 9812 1345808 1726310 7.796 9.997 446 15 15 6690 100350
552	53674569 5845 1347491 1726082 7.806 9.996 167 356.93393263178 356.93393263178 59607.966749507 21276105.988085
553	53680414 5845 1347491 1726082 7.806 9.996 167 37.611595359935 41.339680215254 6540.5291128022 256440.48386568
554	53686259 10255 1345809 1726311 7.796 9.997 446 26 870 229193 168681397
555	53696514 9320 1345972 1726605 7.797 9.999 444 1 1 444 444
556	53705834 10208 1345972 1726605 7.797 9.999 444 165 868 228297 166429501
557	53716042 10208 1345975 1726608 7.797 9.999 444 165 868 228297 166429501
558	53726250 9320 1345975 1726608 7.797 9.999 444 0 0 0 0
559	53735570 11096 1345975 1726608 7.797 9.999 444 0.004 0.004 1.776 0.0071040000000001
560	53746666 9320 1345975 1726608 7.797 9.999 444 0 0 0 0
561	53755986 7696 1346150 1726283 7.798 9.997 221 114142.71423808 117764.34245366 25589020.88355 2963129978141.8
562	53763682 4631 1346150 1726283 7.798 9.997 221 0 0 0 0
563	53768313 4631 1346150 1726283 7.798 9.997 221 0 0 0 0
564	53772944 7504 1346150 1726283 7.798 9.997 221 0.005586328772 0.010586328772 1.543578658612 0.010974113462997
565	53780448 5294 1346150 1726283 7.798 9.997 221 1029 1029 227409 234003861
566	53785742 5294 1346151 1726284 7.798 9.997 221 1029 1029 227409 234003861
567	53791036 5294 1346151 1726284 7.798 9.997 221 1028 1028 227188 233549264
568	53796330 5294 1346154 1726287 7.798 9.997 221 1008 1008 222768 224550144
569	53801624 5294 1346155 1726288 7.798 9.997 221 1000 1000 221000 221000000
570	53806918 7504 1346155 1726288 7.798 9.997 221 0.005589898372 0.010589898372 1.544367540212 0.010985136195749
571	53814422 5073 1346155 1726288 7.798 9.997 221 777 997 196027 174775419
572	53819495 9610 1346007 1726526 7.797 9.998 458 0 0 0 0
573	53829105 9610 1346007 1726526 7.797 9.998 458 0 0 0 0
574	53838715 9610 1346007 1726526 7.797 9.998 458 1 1 458 458
575	53848325 9765 1345808 1726310 7.796 9.997 279 356.93393263178 356.93393263178 99584.567204265 35545111.201652
576	53858090 9762 1345808 1726310 7.796 9.997 279 39.02885626379 47.924389256293 12233.105829614 536682.09709975
577	53867852 9320 1345967 1726405 7.797 9.998 444 1 1 444 444
578	53877172 10208 1345967 1726405 7.797 9.998 444 165 868 228297 158332929
579	53887380 10208 1345970 1726408 7.797 9.998 444 165 868 228297 158332929
580	53897588 9320 1345970 1726408 7.797 9.998 444 0 0 0 0
581	53906908 11096 1345970 1726408 7.797 9.998 444 0.004 0.004 1.776 0.0071040000000001
582	53918004 9320 1345970 1726408 7.797 9.998 444 0 0 0 0
583	53927324 7711 1346122 1726608 7.798 9.999 221 114117.34637182 117764.34245366 25586450.773029 2962534699946.2
584	53935035 4637 1346122 1726608 7.798 9.999 221 0 0 0 0
585	53939672 4637 1346122 1726608 7.798 9.999 221 0 0 0 0
586	53944309 7289 1346122 1726608 7.798 9.999 221 0.00588023797 0.00788023797 1.34153259137 0.0081855008765064
587	53951598 5300 1346122 1726608 7.798 9.999 221 1029 1029 227409 234003861
588	53956898 5300 1346123 1726609 7.798 9.999 221 1029 1029 227409 234003861
589	53962198 5300 1346123 1726609 7.798 9.999 221 1028 1028 227188 233549264
590	53967498 5300 1346126 1726612 7.798 9.999 221 1008 1008 222768 224550144
591	53972798 5300 1346127 1726613 7.798 9.999 221 1000 1000 221000 221000000
592	53978098 7289 1346127 1726613 7.798 9.999 221 0.00588380757 0.00788380757 1.34232147297 0.0081950811619744
593	53985387 5079 1346127 1726613 7.798 9.999 221 777 997 196027 174775419
594	53990466 9286 1346167 1726765 7.798 10 444 0 0 0 0
595	53999752 9286 1346167 1726765 7.798 10 444 0 0 0 0
596	54009038 9286 1346167 1726765 7.798 10 444 1 1 444 444
597	54018324 9745 1346172 1726647 7.798 9.999 443 14 15 6630 99240
598	54028069 14551 1346172 1726647 7.798 9.999 428 375.9227547261 375.9227547261 160894.93902277 60484068.698928
599	54042620 14772 1346172 1726647 7.798 9.999 428 38.405393615207 40.86416924353 17429.190092611 709773.08411752
600	54057392 10187 1346173 1726648 7.798 9.999 443 30 870 229181 171430177
601	54067579 5150 1346602 1726717 7.801 10 221 1000 1000 221000 221000000
602	54072729 7700 1346112 1726408 7.798 9.998 221 114244.3876417 117915.71050309 25615591.450467 2969291025229.3
603	54080429 4637 1346112 1726408 7.798 9.998 221 0 0 0 0
604	54085066 4637 1346112 1726408 7.798 9.998 221 0 0 0 0
605	54089703 7510 1346112 1726408 7.798 9.998 221 0.005653734098 0.007653734098 1.280475235658 0.0074537322585222
606	54097213 5300 1346112 1726408 7.798 9.998 221 1029 1029 227409 234003861
607	54102513 5300 1346113 1726409 7.798 9.998 221 1029 1029 227409 234003861
608	54107813 5300 1346113 1726409 7.798 9.998 221 1028 1028 227188 233549264
609	54113113 5300 1346116 1726412 7.798 9.998 221 1008 1008 222768 224550144
610	54118413 5300 1346117 1726413 7.798 9.998 221 1000 1000 221000 221000000
611	54123713 7510 1346117 1726413 7.798 9.998 221 0.005657303698 0.007657303698 1.281264117258 0.0074628766433164
612	54131223 5079 1346117 1726413 7.798 9.998 221 778 998 196248 175167694
613	54136302 5166 1346258 1725013 7.799 9.99 220 1000 1000 220000 220000000
614	54141468 5059 1346445 1726756 7.8 10 221 1000 1000 221000 221000000
615	54146527 7245 1346817 1723643 7.802 9.982 207 45.530316693459 45.530316693459 9424.775555546 429113.01580878
616	54153772 7245 1346817 1723643 7.802 9.982 207 46.918915346685 62.637445363908 11825.575545933 680085.7392561
617	54161017 2448 1354101 1725743 7.844 9.994 72 107.4666418322 107.4666418322 7737.5982119186 831533.69568174
618	54163465 2520 1354101 1725743 7.844 9.994 72 44.596942976246 46.856508402881 3313.0540328461 152495.1049285
619	54165985 1190 1355993 1694777 7.855 9.815 34 450.86958970353 450.86958970353 15329.56604992 6911635.1552605
620	54167175 1190 1355993 1694777 7.855 9.815 34 27.460267805051 29.417120406465 970.82930479861 27752.967106038
621	54168365 3837 1346290 1723166 7.799 9.979 110 439.02847078856 439.02847078856 48293.131786741 21202059.797923
622	54172202 3837 1346290 1723166 7.799 9.979 110 22.613312822318 26.411481699016 2675.8359649853 65124.028650779
623	54176039 1430 1355314 1725244 7.851 9.991 65 12 12 780 9360
624	54177469 1645 1355314 1723550 7.851 9.981 47 575.41138600336 575.41138600336 27044.335142158 15561618.367689
625	54179114 1644 1355314 1723550 7.851 9.981 47 15.832161599994 17.818428782786 753.89092283351 12099.205586638
626	54180758 1495 1355315 1725245 7.851 9.991 65 111 333 10212 1848150
627	54182253 1362 1355748 1725711 7.854 9.994 65 1 1 65 65
628	54183615 1423 1355748 1725711 7.854 9.994 62 109 331 9422 1637720
629	54185038 1423 1355751 1725714 7.854 9.994 62 109 331 9422 1637720
630	54186461 1299 1355751 1725714 7.854 9.994 62 0 0 0 0
631	54187760 1544 1355751 1725714 7.854 9.994 62 0.004 0.01 0.266 0.001244
632	54189304 1299 1355751 1725714 7.854 9.994 62 0 0 0 0
633	54190603 1302 1355988 1725935 7.855 9.995 62 0 1 3 3
634	54191905 1365 1355988 1725935 7.855 9.995 65 0 1 3 3
635	54193270 1302 1355988 1725935 7.855 9.995 62 1 2 65 71
636	54194572 1575 1346297 1726652 7.7990433593 9.9990433593 45 16448000 16448000 740160000 1.217415168e+16
637	54196147 1575 1346297 1726652 7.7990433593 9.9990433593 45 16448000 16448000 740160000 1.217415168e+16
638	54197722 1575 1346301 1726656 7.7990442373 9.9990442373 45 16448000 16448000 740160000 1.217415168e+16
639	54199297 1575 1346301 1726656 7.7990442373 9.9990442373 45 16448000 16448000 740160000 1.217415168e+16
640	54200872 1575 1346308 1726663 7.7990451153 9.9990451153 45 17024000 17024000 766080000 1.304174592e+16
641	54202447 1575 1346308 1726663 7.7990451153 9.9990451153 45 17024000 17024000 766080000 1.304174592e+16
642	54204022 1575 1346312 1726667 7.7990460221 9.9990460221 45 17024000 17024000 766080000 1.304174592e+16
643	54205597 1575 1346312 1726667 7.7990460221 9.9990460221 45 17024000 17024000 766080000 1.304174592e+16
644	54207172 3605 1346650 1725242 7.801 9.991 103 536.15580200914 536.15580200914 55224.047606941 29608693.53489
645	54210777 3559 1346650 1725242 7.801 9.991 103 27.202187774259 31.263042995753 3018.9998927941 88718.384928181
646	54214336 630 1390193 1725244 8.053 9.991 18 575.41138600336 575.41138600336 10357.404948061 5959768.7365616
647	54214966 630 1390193 1725244 8.053 9.991 18 16.643180147018 16.643180147018 299.57724264633 4985.9180173099
648	54215596 2625 1345810 1722622 7.796 9.976 75 412.15049139181 412.15049139181 30911.286854386 12740102.066588
649	54218221 2625 1345810 1722622 7.796 9.976 75 24.941485816994 34.272155593434 2264.4593659568 68564.122909723
650	54220846 189 1351818 1723558 7.832 9.982 9 3 3 27 81
651	54221035 189 1351818 1723558 7.832 9.982 9 0 0 0 0
652	54221224 312 1368892 1712855 7.93 9.92 9 4915.2137568665 5196.9696969697 45418.788442451 229289190.04571
653	54221536 186 1368892 1712855 7.93 9.92 9 0 0 0 0
654	54221722 186 1368892 1712855 7.93 9.92 9 0 0 0 0
655	54221908 303 1368892 1712855 7.93 9.92 9 7.573449507189 9.483449507189 77.105045564701 664.19907772607
656	54222211 213 1368892 1712855 7.93 9.92 9 1029 1029 9261 9529569
657	54222424 213 1368893 1712856 7.93 9.92 9 1029 1029 9261 9529569
658	54222637 213 1368893 1712856 7.93 9.92 9 1028 1028 9252 9511056
659	54222850 213 1368896 1712859 7.93 9.92 9 1008 1008 9072 9144576
660	54223063 213 1368897 1712860 7.93 9.92 9 1000 1000 9000 9000000
661	54223276 303 1368897 1712860 7.93 9.92 9 7.573453076789 9.483453076789 77.105077691101 664.19962819452
662	54223579 195 1368897 1712860 7.93 9.92 9 34 42 342 13056
663	54223774 84 1349413 1664037 7.817 9.637 4 0 0 0 0
664	54223858 84 1408917 1561018 8.162 9.042 4 3 3 12 36
665	54223942 84 1408917 1561018 8.162 9.042 4 0 0 0 0
666	54224026 510 1370367 1726529 7.938 9.998 15 375.9227547261 375.9227547261 5638.8413208915 2119768.7628129
667	54224536 525 1370367 1726529 7.938 9.998 15 31.526047083332 34.808068054618 500.43240904698 16700.980075221
668	54225061 63 1369093 1713134 7.931 9.921 3 0 0 0 0
669	54225124 522 1363929 1714843 7.902 9.932 25 3 6 114 576
670	54225646 522 1363929 1714843 7.902 9.932 25 0 1 3 3
671	54226168 22 1649161 1649161 9.551 9.551 1 11 11 11 121
672	54226190 35 1649161 1649161 9.551 9.551 1 433.46811255541 433.46811255541 433.46811255541 187894.60460235
673	54226225 35 1649161 1649161 9.551 9.551 1 18.131649312177 18.131649312177 18.131649312177 328.75670677976
674	54226260 23 1649162 1649162 9.551 9.551 1 101 101 101 10201
675	54226283 21 1649569 1649569 9.554 9.554 1 1 1 1 1
676	54226304 22 1649569 1649569 9.554 9.554 1 99 99 99 9801
677	54226326 22 1649572 1649572 9.554 9.554 1 99 99 99 9801
678	54226348 21 1649572 1649572 9.554 9.554 1 0 0 0 0
679	54226369 25 1649572 1649572 9.554 9.554 1 0.004 0.004 0.004 1.6e-05
680	54226394 21 1649572 1649572 9.554 9.554 1 0 0 0 0
681	54226415 21 1649909 1649909 9.555 9.555 1 0 0 0 0
682	54226436 21 1649909 1649909 9.555 9.555 1 0 0 0 0
683	54226457 21 1649909 1649909 9.555 9.555 1 1 1 1 1
684	54226478 23 1726774 1726774 10 10 1 100000 100000 100000 10000000000
685	54226501 23 1726774 1726774 10 10 1 100000 100000 100000 10000000000
686	54226524 23 1726774 1726774 10 10 1 100000 100000 100000 10000000000
687	54226547 23 1726774 1726774 10 10 1 100000 100000 100000 10000000000
688	54226570 23 1726774 1726774 10 10 1 100000 100000 100000 10000000000
689	54226593 23 1726774 1726774 10 10 1 100000 100000 100000 10000000000
690	54226616 23 1726774 1726774 10 10 1 100000 100000 100000 10000000000
691	54226639 23 1726774 1726774 10 10 1 100000 100000 100000 10000000000
692	54226662 23 1726774 1726774 10 10 1 100000 100000 100000 10000000000
693	54226685 23 1726774 1726774 10 10 1 100000 100000 100000 10000000000
694	54226708 23 1726774 1726774 10 10 1 100000 100000 100000 10000000000
695	54226731 23 1726774 1726774 10 10 1 100000 100000 100000 10000000000
696	54226754 23 1726774 1726774 10 10 1 100000 100000 100000 10000000000
697	54226777 23 1726774 1726774 10 10 1 100000 100000 100000 10000000000
698	54226800 23 1726774 1726774 10 10 1 100000 100000 100000 10000000000
699	54226823 23 1726774 1726774 10 10 1 100000 100000 100000 10000000000
700	54226846 23 1726774 1726774 10 10 1 100000 100000 100000 10000000000
701	54226869 23 1726774 1726774 10 10 1 100000 100000 100000 10000000000
702	54226892 23 1726774 1726774 10 10 1 100000 100000 100000 10000000000
703	54226915 23 1726774 1726774 10 10 1 100000 100000 100000 10000000000

