file 44068629 1718189224                                        
version 3
run CarrierAggregation-3-20240612-12:45:22-33184
attr configname CarrierAggregation
attr datetime 20240612-12:45:22
attr datetimef 20240612-124522
attr experiment CarrierAggregation
attr inifile omnetpp.ini
attr iterationvars $numUes=15
attr iterationvarsd numUes=15
attr iterationvarsf numUes=15-
attr measurement $numUes=15
attr network simu5g.simulations.NR.networks.SingleCell_Standalone
attr processid 33184
attr repetition 0
attr replication #0
attr resultdir results
attr runnumber 3
attr seedset 0
itervar numUes 15
config image-path ../../../images;../../../../INET4.5/images
config extends Multiple-UEs
config *.carrierAggregation.numComponentCarriers 2
config *.carrierAggregation.componentCarrier[0].carrierFrequency 2GHz
config *.carrierAggregation.componentCarrier[0].numBands 6
config *.carrierAggregation.componentCarrier[1].carrierFrequency 6GHz
config *.carrierAggregation.componentCarrier[1].numBands 6
config *.gnb.cellularNic.numCarriers 2
config *.gnb.cellularNic.channelModel[0].componentCarrierIndex 0
config *.gnb.cellularNic.channelModel[1].componentCarrierIndex 1
config *.ue[*].cellularNic.numNRCarriers 2
config *.ue[*].cellularNic.nrChannelModel[0].componentCarrierIndex 0
config *.ue[*].cellularNic.nrChannelModel[1].componentCarrierIndex 1
config *.numBgCells 2
config *.bgCell[0].bgScheduler.carrierFrequency 2GHz
config *.bgCell[0].bgScheduler.numBands 6
config *.bgCell[1].bgScheduler.carrierFrequency 6GHz
config *.bgCell[1].bgScheduler.numBands 6
config *.bgCell[*].bgScheduler.txPower 23
config extends BgTraffic
config *.numUe 15
config *.ue[*].mobility.initialX uniform(0m,1000m)
config *.ue[*].mobility.initialY uniform(0m,1000m)
config *.server.numApps 15
config output-scalar-file results/CarrierAggregation/$numUes=15-0.sca
config output-vector-file results/CarrierAggregation/$numUes=15-0.vec
config extends Single-UE
config *.numBgCells 1
config *.bgCell[*].bgScheduler.isNr true
config *.bgCell[*].bgScheduler.txPower 23
config *.bgCell[*].mobility.initialX 750m
config *.bgCell[*].mobility.initialY 1000m
config *.bgCell[*].bgTrafficGenerator.numBgUes 10
config *.bgCell[*].bgTrafficGenerator.bgUE[*].mobility.initialX uniform(500m,1000m)
config *.bgCell[*].bgTrafficGenerator.bgUE[*].mobility.initialY uniform(500m,1000m)
config *.bgCell[*].bgTrafficGenerator.bgUE[*].trafficGeneratorType "\"TrafficGeneratorCbr\""
config *.bgCell[*].bgTrafficGenerator.bgUE[*].generator.startTimeDl uniform(0s,0.05s)
config *.bgCell[*].bgTrafficGenerator.bgUE[*].generator.packetSizeDl 1000B
config *.bgCell[*].bgTrafficGenerator.bgUE[*].generator.periodDl 0.01s
config *.gnb.mobility.initialX 500m
config *.gnb.mobility.initialY 500m
config *.numUe 1
config *.ue[*].mobility.initialX 500m
config *.ue[*].mobility.initialY 900m
config *.ue[*].macCellId 0
config *.ue[*].masterId 0
config *.ue[*].nrMacCellId 1
config *.ue[*].nrMasterId 1
config *.ue[*].numApps 1
config *.server.numApps 1
config *.ue[*].app[*].typename CbrReceiver
config *.ue[*].app[*].localPort 1000
config *.server.app[*].typename CbrSender
config *.server.app[*].PacketSize 1000
config *.server.app[*].sampling_time 0.01s
config *.server.app[*].destAddress "\"ue[\"+string(ancestorIndex(0))+\"]\""
config *.server.app[*].destPort 1000
config *.server.app[*].localPort 3088+ancestorIndex(0)
config *.server.app[*].startTime uniform(0.01s,0.05s)
config output-scalar-file-append false
config network simu5g.simulations.NR.networks.SingleCell_Standalone
config sim-time-limit 10s
config warmup-period 1s
config seed-set 0
config output-scalar-file results/CarrierAggregation/0.sca
config output-vector-file results/CarrierAggregation/0.vec
config **.routingRecorder.enabled false
config **.amcType "\"NRAmc\""
config **.targetBler 0.01
config **.blerShift 5
config *.configurator.config "xmldoc(\"./demo.xml\")"
config **.mobility.constraintAreaMaxX 1000m
config **.mobility.constraintAreaMaxY 1000m
config **.mobility.constraintAreaMinX 0m
config **.mobility.constraintAreaMinY 0m
config **.mobility.constraintAreaMinZ 0m
config **.mobility.constraintAreaMaxZ 0m
config **.mobility.initFromDisplayString false

vector 0 SingleCell_Standalone.server.ppp[0].queue queueLength:vector ETV
attr autoWarmupFilter false
attr interpolationmode sample-hold
attr recordingmode vector
attr source "warmup(atomic(constant0(packetPushEnded) + count(packetPushStarted) - count(packetPulled) - count(packetRemoved) - count(packetDropped)))"
attr title "queue length"
attr unit pk
vector 1 SingleCell_Standalone.server.ppp[0].queue queueBitLength:vector ETV
attr autoWarmupFilter false
attr interpolationmode sample-hold
attr recordingmode vector
attr source "warmup(atomic(constant0(packetPushEnded) + sum(packetLength(packetPushStarted)) - sum(packetLength(packetPulled)) - sum(packetLength(packetRemoved)) - sum(packetLength(packetDropped))))"
attr title "queue bit length"
attr unit b
vector 2 SingleCell_Standalone.server.udp passedUpPk:vector(count) ETV
attr interpolationmode none
attr recordingmode vector(count)
attr source packetSentToUpper
attr title "packets passed up, count"
vector 3 SingleCell_Standalone.server.udp droppedPkWrongPort:vector(count) ETV
attr interpolationmode none
attr recordingmode vector(count)
attr source packetDropReasonIsNoPortFound(packetDropped)
attr title "packets dropped (wrong port), count"
vector 4 SingleCell_Standalone.server.udp droppedPkBadChecksum:vector(count) ETV
attr interpolationmode none
attr recordingmode vector(count)
attr source packetDropReasonIsIncorrectlyReceived(packetDropped)
attr title "packets dropped (checksum error), count"
vector 5 SingleCell_Standalone.router.ppp[0].queue queueLength:vector ETV
attr autoWarmupFilter false
attr interpolationmode sample-hold
attr recordingmode vector
attr source "warmup(atomic(constant0(packetPushEnded) + count(packetPushStarted) - count(packetPulled) - count(packetRemoved) - count(packetDropped)))"
attr title "queue length"
attr unit pk
vector 6 SingleCell_Standalone.router.ppp[0].queue queueBitLength:vector ETV
attr autoWarmupFilter false
attr interpolationmode sample-hold
attr recordingmode vector
attr source "warmup(atomic(constant0(packetPushEnded) + sum(packetLength(packetPushStarted)) - sum(packetLength(packetPulled)) - sum(packetLength(packetRemoved)) - sum(packetLength(packetDropped))))"
attr title "queue bit length"
attr unit b
vector 7 SingleCell_Standalone.router.ppp[1].queue queueLength:vector ETV
attr autoWarmupFilter false
attr interpolationmode sample-hold
attr recordingmode vector
attr source "warmup(atomic(constant0(packetPushEnded) + count(packetPushStarted) - count(packetPulled) - count(packetRemoved) - count(packetDropped)))"
attr title "queue length"
attr unit pk
vector 8 SingleCell_Standalone.router.ppp[1].queue queueBitLength:vector ETV
attr autoWarmupFilter false
attr interpolationmode sample-hold
attr recordingmode vector
attr source "warmup(atomic(constant0(packetPushEnded) + sum(packetLength(packetPushStarted)) - sum(packetLength(packetPulled)) - sum(packetLength(packetRemoved)) - sum(packetLength(packetDropped))))"
attr title "queue bit length"
attr unit b
vector 9 SingleCell_Standalone.upf.ppp[0].queue queueLength:vector ETV
attr autoWarmupFilter false
attr interpolationmode sample-hold
attr recordingmode vector
attr source "warmup(atomic(constant0(packetPushEnded) + count(packetPushStarted) - count(packetPulled) - count(packetRemoved) - count(packetDropped)))"
attr title "queue length"
attr unit pk
vector 10 SingleCell_Standalone.upf.ppp[0].queue queueBitLength:vector ETV
attr autoWarmupFilter false
attr interpolationmode sample-hold
attr recordingmode vector
attr source "warmup(atomic(constant0(packetPushEnded) + sum(packetLength(packetPushStarted)) - sum(packetLength(packetPulled)) - sum(packetLength(packetRemoved)) - sum(packetLength(packetDropped))))"
attr title "queue bit length"
attr unit b
vector 11 SingleCell_Standalone.upf.pppIf.queue queueLength:vector ETV
attr autoWarmupFilter false
attr interpolationmode sample-hold
attr recordingmode vector
attr source "warmup(atomic(constant0(packetPushEnded) + count(packetPushStarted) - count(packetPulled) - count(packetRemoved) - count(packetDropped)))"
attr title "queue length"
attr unit pk
vector 12 SingleCell_Standalone.upf.pppIf.queue queueBitLength:vector ETV
attr autoWarmupFilter false
attr interpolationmode sample-hold
attr recordingmode vector
attr source "warmup(atomic(constant0(packetPushEnded) + sum(packetLength(packetPushStarted)) - sum(packetLength(packetPulled)) - sum(packetLength(packetRemoved)) - sum(packetLength(packetDropped))))"
attr title "queue bit length"
attr unit b
vector 13 SingleCell_Standalone.upf.udp passedUpPk:vector(count) ETV
attr interpolationmode none
attr recordingmode vector(count)
attr source packetSentToUpper
attr title "packets passed up, count"
vector 14 SingleCell_Standalone.upf.udp droppedPkWrongPort:vector(count) ETV
attr interpolationmode none
attr recordingmode vector(count)
attr source packetDropReasonIsNoPortFound(packetDropped)
attr title "packets dropped (wrong port), count"
vector 15 SingleCell_Standalone.upf.udp droppedPkBadChecksum:vector(count) ETV
attr interpolationmode none
attr recordingmode vector(count)
attr source packetDropReasonIsIncorrectlyReceived(packetDropped)
attr title "packets dropped (checksum error), count"
vector 16 SingleCell_Standalone.iUpf.ppp[0].queue queueLength:vector ETV
attr autoWarmupFilter false
attr interpolationmode sample-hold
attr recordingmode vector
attr source "warmup(atomic(constant0(packetPushEnded) + count(packetPushStarted) - count(packetPulled) - count(packetRemoved) - count(packetDropped)))"
attr title "queue length"
attr unit pk
vector 17 SingleCell_Standalone.iUpf.ppp[0].queue queueBitLength:vector ETV
attr autoWarmupFilter false
attr interpolationmode sample-hold
attr recordingmode vector
attr source "warmup(atomic(constant0(packetPushEnded) + sum(packetLength(packetPushStarted)) - sum(packetLength(packetPulled)) - sum(packetLength(packetRemoved)) - sum(packetLength(packetDropped))))"
attr title "queue bit length"
attr unit b
vector 18 SingleCell_Standalone.iUpf.ppp[1].queue queueLength:vector ETV
attr autoWarmupFilter false
attr interpolationmode sample-hold
attr recordingmode vector
attr source "warmup(atomic(constant0(packetPushEnded) + count(packetPushStarted) - count(packetPulled) - count(packetRemoved) - count(packetDropped)))"
attr title "queue length"
attr unit pk
vector 19 SingleCell_Standalone.iUpf.ppp[1].queue queueBitLength:vector ETV
attr autoWarmupFilter false
attr interpolationmode sample-hold
attr recordingmode vector
attr source "warmup(atomic(constant0(packetPushEnded) + sum(packetLength(packetPushStarted)) - sum(packetLength(packetPulled)) - sum(packetLength(packetRemoved)) - sum(packetLength(packetDropped))))"
attr title "queue bit length"
attr unit b
vector 20 SingleCell_Standalone.iUpf.pppIf.queue queueLength:vector ETV
attr autoWarmupFilter false
attr interpolationmode sample-hold
attr recordingmode vector
attr source "warmup(atomic(constant0(packetPushEnded) + count(packetPushStarted) - count(packetPulled) - count(packetRemoved) - count(packetDropped)))"
attr title "queue length"
attr unit pk
vector 21 SingleCell_Standalone.iUpf.pppIf.queue queueBitLength:vector ETV
attr autoWarmupFilter false
attr interpolationmode sample-hold
attr recordingmode vector
attr source "warmup(atomic(constant0(packetPushEnded) + sum(packetLength(packetPushStarted)) - sum(packetLength(packetPulled)) - sum(packetLength(packetRemoved)) - sum(packetLength(packetDropped))))"
attr title "queue bit length"
attr unit b
vector 22 SingleCell_Standalone.iUpf.udp passedUpPk:vector(count) ETV
attr interpolationmode none
attr recordingmode vector(count)
attr source packetSentToUpper
attr title "packets passed up, count"
vector 23 SingleCell_Standalone.iUpf.udp droppedPkWrongPort:vector(count) ETV
attr interpolationmode none
attr recordingmode vector(count)
attr source packetDropReasonIsNoPortFound(packetDropped)
attr title "packets dropped (wrong port), count"
vector 24 SingleCell_Standalone.iUpf.udp droppedPkBadChecksum:vector(count) ETV
attr interpolationmode none
attr recordingmode vector(count)
attr source packetDropReasonIsIncorrectlyReceived(packetDropped)
attr title "packets dropped (checksum error), count"
vector 25 SingleCell_Standalone.gnb.pppIf.queue queueLength:vector ETV
attr autoWarmupFilter false
attr interpolationmode sample-hold
attr recordingmode vector
attr source "warmup(atomic(constant0(packetPushEnded) + count(packetPushStarted) - count(packetPulled) - count(packetRemoved) - count(packetDropped)))"
attr title "queue length"
attr unit pk
vector 26 SingleCell_Standalone.gnb.pppIf.queue queueBitLength:vector ETV
attr autoWarmupFilter false
attr interpolationmode sample-hold
attr recordingmode vector
attr source "warmup(atomic(constant0(packetPushEnded) + sum(packetLength(packetPushStarted)) - sum(packetLength(packetPulled)) - sum(packetLength(packetRemoved)) - sum(packetLength(packetDropped))))"
attr title "queue bit length"
attr unit b
vector 27 SingleCell_Standalone.gnb.pppMEHostIf.queue queueLength:vector ETV
attr autoWarmupFilter false
attr interpolationmode sample-hold
attr recordingmode vector
attr source "warmup(atomic(constant0(packetPushEnded) + count(packetPushStarted) - count(packetPulled) - count(packetRemoved) - count(packetDropped)))"
attr title "queue length"
attr unit pk
vector 28 SingleCell_Standalone.gnb.pppMEHostIf.queue queueBitLength:vector ETV
attr autoWarmupFilter false
attr interpolationmode sample-hold
attr recordingmode vector
attr source "warmup(atomic(constant0(packetPushEnded) + sum(packetLength(packetPushStarted)) - sum(packetLength(packetPulled)) - sum(packetLength(packetRemoved)) - sum(packetLength(packetDropped))))"
attr title "queue bit length"
attr unit b
vector 29 SingleCell_Standalone.gnb.udp passedUpPk:vector(count) ETV
attr interpolationmode none
attr recordingmode vector(count)
attr source packetSentToUpper
attr title "packets passed up, count"
vector 30 SingleCell_Standalone.gnb.udp droppedPkWrongPort:vector(count) ETV
attr interpolationmode none
attr recordingmode vector(count)
attr source packetDropReasonIsNoPortFound(packetDropped)
attr title "packets dropped (wrong port), count"
vector 31 SingleCell_Standalone.gnb.udp droppedPkBadChecksum:vector(count) ETV
attr interpolationmode none
attr recordingmode vector(count)
attr source packetDropReasonIsIncorrectlyReceived(packetDropped)
attr title "packets dropped (checksum error), count"
vector 32 SingleCell_Standalone.ue[0].udp passedUpPk:vector(count) ETV
attr interpolationmode none
attr recordingmode vector(count)
attr source packetSentToUpper
attr title "packets passed up, count"
vector 33 SingleCell_Standalone.ue[0].udp droppedPkWrongPort:vector(count) ETV
attr interpolationmode none
attr recordingmode vector(count)
attr source packetDropReasonIsNoPortFound(packetDropped)
attr title "packets dropped (wrong port), count"
vector 34 SingleCell_Standalone.ue[0].udp droppedPkBadChecksum:vector(count) ETV
attr interpolationmode none
attr recordingmode vector(count)
attr source packetDropReasonIsIncorrectlyReceived(packetDropped)
attr title "packets dropped (checksum error), count"
vector 35 SingleCell_Standalone.ue[1].udp passedUpPk:vector(count) ETV
attr interpolationmode none
attr recordingmode vector(count)
attr source packetSentToUpper
attr title "packets passed up, count"
vector 36 SingleCell_Standalone.ue[1].udp droppedPkWrongPort:vector(count) ETV
attr interpolationmode none
attr recordingmode vector(count)
attr source packetDropReasonIsNoPortFound(packetDropped)
attr title "packets dropped (wrong port), count"
vector 37 SingleCell_Standalone.ue[1].udp droppedPkBadChecksum:vector(count) ETV
attr interpolationmode none
attr recordingmode vector(count)
attr source packetDropReasonIsIncorrectlyReceived(packetDropped)
attr title "packets dropped (checksum error), count"
vector 38 SingleCell_Standalone.ue[2].udp passedUpPk:vector(count) ETV
attr interpolationmode none
attr recordingmode vector(count)
attr source packetSentToUpper
attr title "packets passed up, count"
vector 39 SingleCell_Standalone.ue[2].udp droppedPkWrongPort:vector(count) ETV
attr interpolationmode none
attr recordingmode vector(count)
attr source packetDropReasonIsNoPortFound(packetDropped)
attr title "packets dropped (wrong port), count"
vector 40 SingleCell_Standalone.ue[2].udp droppedPkBadChecksum:vector(count) ETV
attr interpolationmode none
attr recordingmode vector(count)
attr source packetDropReasonIsIncorrectlyReceived(packetDropped)
attr title "packets dropped (checksum error), count"
vector 41 SingleCell_Standalone.ue[3].udp passedUpPk:vector(count) ETV
attr interpolationmode none
attr recordingmode vector(count)
attr source packetSentToUpper
attr title "packets passed up, count"
vector 42 SingleCell_Standalone.ue[3].udp droppedPkWrongPort:vector(count) ETV
attr interpolationmode none
attr recordingmode vector(count)
attr source packetDropReasonIsNoPortFound(packetDropped)
attr title "packets dropped (wrong port), count"
vector 43 SingleCell_Standalone.ue[3].udp droppedPkBadChecksum:vector(count) ETV
attr interpolationmode none
attr recordingmode vector(count)
attr source packetDropReasonIsIncorrectlyReceived(packetDropped)
attr title "packets dropped (checksum error), count"
vector 44 SingleCell_Standalone.ue[4].udp passedUpPk:vector(count) ETV
attr interpolationmode none
attr recordingmode vector(count)
attr source packetSentToUpper
attr title "packets passed up, count"
vector 45 SingleCell_Standalone.ue[4].udp droppedPkWrongPort:vector(count) ETV
attr interpolationmode none
attr recordingmode vector(count)
attr source packetDropReasonIsNoPortFound(packetDropped)
attr title "packets dropped (wrong port), count"
vector 46 SingleCell_Standalone.ue[4].udp droppedPkBadChecksum:vector(count) ETV
attr interpolationmode none
attr recordingmode vector(count)
attr source packetDropReasonIsIncorrectlyReceived(packetDropped)
attr title "packets dropped (checksum error), count"
vector 47 SingleCell_Standalone.ue[5].udp passedUpPk:vector(count) ETV
attr interpolationmode none
attr recordingmode vector(count)
attr source packetSentToUpper
attr title "packets passed up, count"
vector 48 SingleCell_Standalone.ue[5].udp droppedPkWrongPort:vector(count) ETV
attr interpolationmode none
attr recordingmode vector(count)
attr source packetDropReasonIsNoPortFound(packetDropped)
attr title "packets dropped (wrong port), count"
vector 49 SingleCell_Standalone.ue[5].udp droppedPkBadChecksum:vector(count) ETV
attr interpolationmode none
attr recordingmode vector(count)
attr source packetDropReasonIsIncorrectlyReceived(packetDropped)
attr title "packets dropped (checksum error), count"
vector 50 SingleCell_Standalone.ue[6].udp passedUpPk:vector(count) ETV
attr interpolationmode none
attr recordingmode vector(count)
attr source packetSentToUpper
attr title "packets passed up, count"
vector 51 SingleCell_Standalone.ue[6].udp droppedPkWrongPort:vector(count) ETV
attr interpolationmode none
attr recordingmode vector(count)
attr source packetDropReasonIsNoPortFound(packetDropped)
attr title "packets dropped (wrong port), count"
vector 52 SingleCell_Standalone.ue[6].udp droppedPkBadChecksum:vector(count) ETV
attr interpolationmode none
attr recordingmode vector(count)
attr source packetDropReasonIsIncorrectlyReceived(packetDropped)
attr title "packets dropped (checksum error), count"
vector 53 SingleCell_Standalone.ue[7].udp passedUpPk:vector(count) ETV
attr interpolationmode none
attr recordingmode vector(count)
attr source packetSentToUpper
attr title "packets passed up, count"
vector 54 SingleCell_Standalone.ue[7].udp droppedPkWrongPort:vector(count) ETV
attr interpolationmode none
attr recordingmode vector(count)
attr source packetDropReasonIsNoPortFound(packetDropped)
attr title "packets dropped (wrong port), count"
vector 55 SingleCell_Standalone.ue[7].udp droppedPkBadChecksum:vector(count) ETV
attr interpolationmode none
attr recordingmode vector(count)
attr source packetDropReasonIsIncorrectlyReceived(packetDropped)
attr title "packets dropped (checksum error), count"
vector 56 SingleCell_Standalone.ue[8].udp passedUpPk:vector(count) ETV
attr interpolationmode none
attr recordingmode vector(count)
attr source packetSentToUpper
attr title "packets passed up, count"
vector 57 SingleCell_Standalone.ue[8].udp droppedPkWrongPort:vector(count) ETV
attr interpolationmode none
attr recordingmode vector(count)
attr source packetDropReasonIsNoPortFound(packetDropped)
attr title "packets dropped (wrong port), count"
vector 58 SingleCell_Standalone.ue[8].udp droppedPkBadChecksum:vector(count) ETV
attr interpolationmode none
attr recordingmode vector(count)
attr source packetDropReasonIsIncorrectlyReceived(packetDropped)
attr title "packets dropped (checksum error), count"
vector 59 SingleCell_Standalone.ue[9].udp passedUpPk:vector(count) ETV
attr interpolationmode none
attr recordingmode vector(count)
attr source packetSentToUpper
attr title "packets passed up, count"
vector 60 SingleCell_Standalone.ue[9].udp droppedPkWrongPort:vector(count) ETV
attr interpolationmode none
attr recordingmode vector(count)
attr source packetDropReasonIsNoPortFound(packetDropped)
attr title "packets dropped (wrong port), count"
vector 61 SingleCell_Standalone.ue[9].udp droppedPkBadChecksum:vector(count) ETV
attr interpolationmode none
attr recordingmode vector(count)
attr source packetDropReasonIsIncorrectlyReceived(packetDropped)
attr title "packets dropped (checksum error), count"
vector 62 SingleCell_Standalone.ue[10].udp passedUpPk:vector(count) ETV
attr interpolationmode none
attr recordingmode vector(count)
attr source packetSentToUpper
attr title "packets passed up, count"
vector 63 SingleCell_Standalone.ue[10].udp droppedPkWrongPort:vector(count) ETV
attr interpolationmode none
attr recordingmode vector(count)
attr source packetDropReasonIsNoPortFound(packetDropped)
attr title "packets dropped (wrong port), count"
vector 64 SingleCell_Standalone.ue[10].udp droppedPkBadChecksum:vector(count) ETV
attr interpolationmode none
attr recordingmode vector(count)
attr source packetDropReasonIsIncorrectlyReceived(packetDropped)
attr title "packets dropped (checksum error), count"
vector 65 SingleCell_Standalone.ue[11].udp passedUpPk:vector(count) ETV
attr interpolationmode none
attr recordingmode vector(count)
attr source packetSentToUpper
attr title "packets passed up, count"
vector 66 SingleCell_Standalone.ue[11].udp droppedPkWrongPort:vector(count) ETV
attr interpolationmode none
attr recordingmode vector(count)
attr source packetDropReasonIsNoPortFound(packetDropped)
attr title "packets dropped (wrong port), count"
vector 67 SingleCell_Standalone.ue[11].udp droppedPkBadChecksum:vector(count) ETV
attr interpolationmode none
attr recordingmode vector(count)
attr source packetDropReasonIsIncorrectlyReceived(packetDropped)
attr title "packets dropped (checksum error), count"
vector 68 SingleCell_Standalone.ue[12].udp passedUpPk:vector(count) ETV
attr interpolationmode none
attr recordingmode vector(count)
attr source packetSentToUpper
attr title "packets passed up, count"
vector 69 SingleCell_Standalone.ue[12].udp droppedPkWrongPort:vector(count) ETV
attr interpolationmode none
attr recordingmode vector(count)
attr source packetDropReasonIsNoPortFound(packetDropped)
attr title "packets dropped (wrong port), count"
vector 70 SingleCell_Standalone.ue[12].udp droppedPkBadChecksum:vector(count) ETV
attr interpolationmode none
attr recordingmode vector(count)
attr source packetDropReasonIsIncorrectlyReceived(packetDropped)
attr title "packets dropped (checksum error), count"
vector 71 SingleCell_Standalone.ue[13].udp passedUpPk:vector(count) ETV
attr interpolationmode none
attr recordingmode vector(count)
attr source packetSentToUpper
attr title "packets passed up, count"
vector 72 SingleCell_Standalone.ue[13].udp droppedPkWrongPort:vector(count) ETV
attr interpolationmode none
attr recordingmode vector(count)
attr source packetDropReasonIsNoPortFound(packetDropped)
attr title "packets dropped (wrong port), count"
vector 73 SingleCell_Standalone.ue[13].udp droppedPkBadChecksum:vector(count) ETV
attr interpolationmode none
attr recordingmode vector(count)
attr source packetDropReasonIsIncorrectlyReceived(packetDropped)
attr title "packets dropped (checksum error), count"
vector 74 SingleCell_Standalone.ue[14].udp passedUpPk:vector(count) ETV
attr interpolationmode none
attr recordingmode vector(count)
attr source packetSentToUpper
attr title "packets passed up, count"
vector 75 SingleCell_Standalone.ue[14].udp droppedPkWrongPort:vector(count) ETV
attr interpolationmode none
attr recordingmode vector(count)
attr source packetDropReasonIsNoPortFound(packetDropped)
attr title "packets dropped (wrong port), count"
vector 76 SingleCell_Standalone.ue[14].udp droppedPkBadChecksum:vector(count) ETV
attr interpolationmode none
attr recordingmode vector(count)
attr source packetDropReasonIsIncorrectlyReceived(packetDropped)
attr title "packets dropped (checksum error), count"
vector 77 SingleCell_Standalone.bgCell[0].bgScheduler bgAvgServedBlocksUl:vector ETV
attr recordingmode vector
attr source bgAvgServedBlocksUl
attr title "Average UL served blocks for background cells"
attr unit ""
vector 78 SingleCell_Standalone.bgCell[0].bgTrafficGenerator.bgUE[7].generator bgAverageCqiDl:vector ETV
attr recordingmode vector
attr source bgAverageCqiDl
attr title "Average DL CQI for background UEs"
attr unit ""
vector 79 SingleCell_Standalone.bgCell[0].bgTrafficGenerator.bgUE[7].generator bgHarqErrorRateDl:vector ETV
attr recordingmode vector
attr source bgHarqErrorRateDl
attr title "Average DL HARQ error rate for background UEs"
attr unit ""
vector 80 SingleCell_Standalone.bgCell[0].bgScheduler bgAvgServedBlocksDl:vector ETV
attr recordingmode vector
attr source bgAvgServedBlocksDl
attr title "Average DL served blocks for background cells"
attr unit ""
vector 81 SingleCell_Standalone.bgCell[1].bgScheduler bgAvgServedBlocksUl:vector ETV
attr recordingmode vector
attr source bgAvgServedBlocksUl
attr title "Average UL served blocks for background cells"
attr unit ""
vector 82 SingleCell_Standalone.bgCell[1].bgTrafficGenerator.bgUE[3].generator bgAverageCqiDl:vector ETV
attr recordingmode vector
attr source bgAverageCqiDl
attr title "Average DL CQI for background UEs"
attr unit ""
vector 83 SingleCell_Standalone.bgCell[1].bgTrafficGenerator.bgUE[3].generator bgHarqErrorRateDl:vector ETV
attr recordingmode vector
attr source bgHarqErrorRateDl
attr title "Average DL HARQ error rate for background UEs"
attr unit ""
vector 84 SingleCell_Standalone.bgCell[1].bgScheduler bgAvgServedBlocksDl:vector ETV
attr recordingmode vector
attr source bgAvgServedBlocksDl
attr title "Average DL served blocks for background cells"
attr unit ""
vector 85 SingleCell_Standalone.gnb.cellularNic.mac avgServedBlocksUl:vector ETV
attr recordingmode vector
attr source avgServedBlocksUl
attr title "Avg Served Blocks Ul"
attr unit blocks
vector 86 SingleCell_Standalone.gnb.cellularNic.mac avgServedBlocksDl:vector ETV
attr recordingmode vector
attr source avgServedBlocksDl
attr title "Avg Served Blocks Dl"
attr unit blocks
vector 87 SingleCell_Standalone.gnb.cellularNic.mac sentPacketToUpperLayer:vector(packetBytes) ETV
attr interpolationmode none
attr recordingmode vector(packetBytes)
attr source sentPacketToUpperLayer
vector 88 SingleCell_Standalone.gnb.cellularNic.rlc.um rlcPacketLossDl:vector ETV
attr recordingmode vector
attr source rlcPacketLossDl
attr title "rlc Packet Loss"
attr unit ""
vector 89 SingleCell_Standalone.gnb.cellularNic.rlc.um sentPacketToLowerLayer:vector(packetBytes) ETV
attr interpolationmode none
attr recordingmode vector(packetBytes)
attr source sentPacketToLowerLayer
vector 90 SingleCell_Standalone.gnb.cellularNic.mac receivedPacketFromUpperLayer:vector(packetBytes) ETV
attr interpolationmode none
attr recordingmode vector(packetBytes)
attr source receivedPacketFromUpperLayer
vector 91 SingleCell_Standalone.ue[1].cellularNic.nrMac sentPacketToLowerLayer:vector(packetBytes) ETV
attr interpolationmode none
attr recordingmode vector(packetBytes)
attr source sentPacketToLowerLayer
vector 92 SingleCell_Standalone.gnb.cellularNic.mac macDelayDl:vector ETV
attr recordingmode vector
attr source macDelayDl
attr title "Delay at the MAC layer UL"
attr unit s
vector 93 SingleCell_Standalone.ue[1].cellularNic.nrMac sentPacketToUpperLayer:vector(packetBytes) ETV
attr interpolationmode none
attr recordingmode vector(packetBytes)
attr source sentPacketToUpperLayer
vector 94 SingleCell_Standalone.ue[1].cellularNic.nrRlc.um receivedPacketFromLowerLayer:vector(packetBytes) ETV
attr interpolationmode none
attr recordingmode vector(packetBytes)
attr source receivedPacketFromLowerLayer
vector 95 SingleCell_Standalone.ue[1].cellularNic.nrRlc.um rlcPduThroughputDl:vector ETV
attr recordingmode vector
attr source rlcPduThroughputDl
attr title "Throughput at the rlc layer DL"
attr unit Bps
vector 96 SingleCell_Standalone.ue[1].cellularNic.nrRlc.um rlcPduDelayDl:vector ETV
attr recordingmode vector
attr source rlcPduDelayDl
attr title "Delay at the rlc layer UL"
attr unit s
vector 97 SingleCell_Standalone.ue[1].cellularNic.nrRlc.um rlcPduPacketLossDl:vector ETV
attr recordingmode vector
attr source rlcPduPacketLossDl
attr title "rlc Packet Loss"
attr unit ""
vector 98 SingleCell_Standalone.ue[5].cellularNic.nrMac sentPacketToLowerLayer:vector(packetBytes) ETV
attr interpolationmode none
attr recordingmode vector(packetBytes)
attr source sentPacketToLowerLayer
vector 99 SingleCell_Standalone.ue[5].cellularNic.nrMac sentPacketToUpperLayer:vector(packetBytes) ETV
attr interpolationmode none
attr recordingmode vector(packetBytes)
attr source sentPacketToUpperLayer
vector 100 SingleCell_Standalone.ue[5].cellularNic.nrRlc.um receivedPacketFromLowerLayer:vector(packetBytes) ETV
attr interpolationmode none
attr recordingmode vector(packetBytes)
attr source receivedPacketFromLowerLayer
vector 101 SingleCell_Standalone.ue[5].cellularNic.nrRlc.um rlcPduThroughputDl:vector ETV
attr recordingmode vector
attr source rlcPduThroughputDl
attr title "Throughput at the rlc layer DL"
attr unit Bps
vector 102 SingleCell_Standalone.ue[5].cellularNic.nrRlc.um rlcPduDelayDl:vector ETV
attr recordingmode vector
attr source rlcPduDelayDl
attr title "Delay at the rlc layer UL"
attr unit s
vector 103 SingleCell_Standalone.ue[5].cellularNic.nrRlc.um rlcPduPacketLossDl:vector ETV
attr recordingmode vector
attr source rlcPduPacketLossDl
attr title "rlc Packet Loss"
attr unit ""
vector 104 SingleCell_Standalone.ue[8].cellularNic.nrMac sentPacketToLowerLayer:vector(packetBytes) ETV
attr interpolationmode none
attr recordingmode vector(packetBytes)
attr source sentPacketToLowerLayer
vector 105 SingleCell_Standalone.ue[8].cellularNic.nrMac sentPacketToUpperLayer:vector(packetBytes) ETV
attr interpolationmode none
attr recordingmode vector(packetBytes)
attr source sentPacketToUpperLayer
vector 106 SingleCell_Standalone.ue[8].cellularNic.nrRlc.um receivedPacketFromLowerLayer:vector(packetBytes) ETV
attr interpolationmode none
attr recordingmode vector(packetBytes)
attr source receivedPacketFromLowerLayer
vector 107 SingleCell_Standalone.ue[8].cellularNic.nrRlc.um rlcPduThroughputDl:vector ETV
attr recordingmode vector
attr source rlcPduThroughputDl
attr title "Throughput at the rlc layer DL"
attr unit Bps
vector 108 SingleCell_Standalone.ue[8].cellularNic.nrRlc.um rlcPduDelayDl:vector ETV
attr recordingmode vector
attr source rlcPduDelayDl
attr title "Delay at the rlc layer UL"
attr unit s
vector 109 SingleCell_Standalone.ue[8].cellularNic.nrRlc.um rlcThroughputDl:vector ETV
attr recordingmode vector
attr source rlcThroughputDl
attr title "Throughput at the rlc layer DL"
attr unit Bps
vector 110 SingleCell_Standalone.ue[8].cellularNic.nrRlc.um rlcPacketLossDl:vector ETV
attr recordingmode vector
attr source rlcPacketLossDl
attr title "rlc Packet Loss"
attr unit ""
vector 111 SingleCell_Standalone.ue[8].cellularNic.nrRlc.um rlcPacketLossTotal:vector ETV
attr recordingmode vector
attr source rlcPacketLossTotal
attr title "rlc Packet Loss"
attr unit ""
vector 112 SingleCell_Standalone.ue[8].cellularNic.nrRlc.um rlcDelayDl:vector ETV
attr recordingmode vector
attr source rlcDelayDl
attr title "Delay at the rlc layer DL"
attr unit s
vector 113 SingleCell_Standalone.ue[8].cellularNic.nrRlc.um sentPacketToUpperLayer:vector(packetBytes) ETV
attr interpolationmode none
attr recordingmode vector(packetBytes)
attr source sentPacketToUpperLayer
vector 114 SingleCell_Standalone.ue[8].cellularNic.nrRlc.um rlcPduPacketLossDl:vector ETV
attr recordingmode vector
attr source rlcPduPacketLossDl
attr title "rlc Packet Loss"
attr unit ""
vector 115 SingleCell_Standalone.ue[8].cellularNic.pdcpRrc receivedPacketFromLowerLayer:vector(packetBytes) ETV
attr interpolationmode none
attr recordingmode vector(packetBytes)
attr source receivedPacketFromLowerLayer
vector 116 SingleCell_Standalone.ue[8].cellularNic.pdcpRrc sentPacketToUpperLayer:vector(packetBytes) ETV
attr interpolationmode none
attr recordingmode vector(packetBytes)
attr source sentPacketToUpperLayer
vector 117 SingleCell_Standalone.ue[8].udp packetReceived:vector(packetBytes) ETV
attr interpolationmode none
attr recordingmode vector(packetBytes)
attr source packetReceived
attr title "packets received, packetBytes"
vector 118 SingleCell_Standalone.ue[8].app[0] cbrFrameDelay:vector ETV
attr recordingmode vector
attr source cbrFrameDelaySignal
attr title "Cbr Frame Delay"
attr unit s
vector 119 SingleCell_Standalone.ue[8].app[0] cbrRcvdPkt:vector ETV
attr recordingmode vector
attr source cbrRcvdPkt
attr title "Received packet ID"
attr unit ""
vector 120 SingleCell_Standalone.gnb.cellularNic.mac sentPacketToLowerLayer:vector(packetBytes) ETV
attr interpolationmode none
attr recordingmode vector(packetBytes)
attr source sentPacketToLowerLayer
vector 121 SingleCell_Standalone.gnb.cellularNic.mac receivedPacketFromLowerLayer:vector(packetBytes) ETV
attr interpolationmode none
attr recordingmode vector(packetBytes)
attr source receivedPacketFromLowerLayer
vector 122 SingleCell_Standalone.ue[5].cellularNic.nrMac harqErrorRate_1st_Dl:vector ETV
attr recordingmode vector
attr source harqErrorRate_1st_Dl
attr title "Harq Error Rate Dl (1st tx)"
attr unit ""
vector 123 SingleCell_Standalone.ue[5].cellularNic.nrMac harqErrorRateDl:vector ETV
attr recordingmode vector
attr source harqErrorRateDl
attr title "Harq Error Rate Dl"
attr unit ""
vector 124 SingleCell_Standalone.ue[5].cellularNic.nrMac harqTxAttemptsDl:vector ETV
attr recordingmode vector
attr source harqTxAttemptsDl
attr title "Harq Tx Attempts Dl"
attr unit ""
vector 125 SingleCell_Standalone.ue[8].cellularNic.nrMac harqErrorRate_1st_Dl:vector ETV
attr recordingmode vector
attr source harqErrorRate_1st_Dl
attr title "Harq Error Rate Dl (1st tx)"
attr unit ""
vector 126 SingleCell_Standalone.ue[8].cellularNic.nrMac harqErrorRateDl:vector ETV
attr recordingmode vector
attr source harqErrorRateDl
attr title "Harq Error Rate Dl"
attr unit ""
vector 127 SingleCell_Standalone.ue[8].cellularNic.nrMac harqTxAttemptsDl:vector ETV
attr recordingmode vector
attr source harqTxAttemptsDl
attr title "Harq Tx Attempts Dl"
attr unit ""
vector 128 SingleCell_Standalone.ue[12].cellularNic.nrMac harqErrorRate_1st_Dl:vector ETV
attr recordingmode vector
attr source harqErrorRate_1st_Dl
attr title "Harq Error Rate Dl (1st tx)"
attr unit ""
vector 129 SingleCell_Standalone.ue[12].cellularNic.nrMac harqErrorRateDl:vector ETV
attr recordingmode vector
attr source harqErrorRateDl
attr title "Harq Error Rate Dl"
attr unit ""
vector 130 SingleCell_Standalone.ue[12].cellularNic.nrMac harqTxAttemptsDl:vector ETV
attr recordingmode vector
attr source harqTxAttemptsDl
attr title "Harq Tx Attempts Dl"
attr unit ""
vector 131 SingleCell_Standalone.ue[7].cellularNic.nrPhy averageCqiDl:vector ETV
attr recordingmode vector
attr source averageCqiDl
attr title "Average Cqi reported in DL"
attr unit cqi
vector 132 SingleCell_Standalone.ue[7].cellularNic.nrChannelModel[0] distance:vector ETV
attr recordingmode vector
attr source distance
attr title "distance between UE and serving base station"
attr unit meters
vector 133 SingleCell_Standalone.ue[7].cellularNic.nrChannelModel[0] rcvdSinrDl:vector ETV
attr recordingmode vector
attr source rcvdSinrDl
attr title "SINR measured at packet reception, DL"
attr unit dB
vector 134 SingleCell_Standalone.ue[7].cellularNic.nrMac receivedPacketFromLowerLayer:vector(packetBytes) ETV
attr interpolationmode none
attr recordingmode vector(packetBytes)
attr source receivedPacketFromLowerLayer
vector 135 SingleCell_Standalone.ue[11].cellularNic.nrPhy averageCqiDl:vector ETV
attr recordingmode vector
attr source averageCqiDl
attr title "Average Cqi reported in DL"
attr unit cqi
vector 136 SingleCell_Standalone.ue[11].cellularNic.nrChannelModel[0] distance:vector ETV
attr recordingmode vector
attr source distance
attr title "distance between UE and serving base station"
attr unit meters
vector 137 SingleCell_Standalone.ue[11].cellularNic.nrChannelModel[0] rcvdSinrDl:vector ETV
attr recordingmode vector
attr source rcvdSinrDl
attr title "SINR measured at packet reception, DL"
attr unit dB
vector 138 SingleCell_Standalone.ue[11].cellularNic.nrMac receivedPacketFromLowerLayer:vector(packetBytes) ETV
attr interpolationmode none
attr recordingmode vector(packetBytes)
attr source receivedPacketFromLowerLayer
vector 139 SingleCell_Standalone.ue[3].cellularNic.nrPhy averageCqiDl:vector ETV
attr recordingmode vector
attr source averageCqiDl
attr title "Average Cqi reported in DL"
attr unit cqi
vector 140 SingleCell_Standalone.ue[3].cellularNic.nrChannelModel[1] distance:vector ETV
attr recordingmode vector
attr source distance
attr title "distance between UE and serving base station"
attr unit meters
vector 141 SingleCell_Standalone.ue[3].cellularNic.nrChannelModel[1] rcvdSinrDl:vector ETV
attr recordingmode vector
attr source rcvdSinrDl
attr title "SINR measured at packet reception, DL"
attr unit dB
vector 142 SingleCell_Standalone.ue[3].cellularNic.nrMac receivedPacketFromLowerLayer:vector(packetBytes) ETV
attr interpolationmode none
attr recordingmode vector(packetBytes)
attr source receivedPacketFromLowerLayer
vector 143 SingleCell_Standalone.ue[14].cellularNic.nrPhy averageCqiDl:vector ETV
attr recordingmode vector
attr source averageCqiDl
attr title "Average Cqi reported in DL"
attr unit cqi
vector 144 SingleCell_Standalone.ue[14].cellularNic.nrChannelModel[1] distance:vector ETV
attr recordingmode vector
attr source distance
attr title "distance between UE and serving base station"
attr unit meters
vector 145 SingleCell_Standalone.ue[14].cellularNic.nrChannelModel[1] rcvdSinrDl:vector ETV
attr recordingmode vector
attr source rcvdSinrDl
attr title "SINR measured at packet reception, DL"
attr unit dB
vector 146 SingleCell_Standalone.ue[14].cellularNic.nrMac receivedPacketFromLowerLayer:vector(packetBytes) ETV
attr interpolationmode none
attr recordingmode vector(packetBytes)
attr source receivedPacketFromLowerLayer
vector 147 SingleCell_Standalone.server.udp packetSent:vector(packetBytes) ETV
attr interpolationmode none
attr recordingmode vector(packetBytes)
attr source packetSent
attr title "packets sent, packetBytes"
vector 148 SingleCell_Standalone.server.ppp[0].queue incomingPacketLengths:vector ETV
attr interpolationmode none
attr recordingmode vector
attr source packetLength(packetPushStarted)
attr title "incoming packet lengths"
attr unit b
vector 149 SingleCell_Standalone.server.ppp[0].queue queueingTime:vector ETV
attr interpolationmode none
attr recordingmode vector
attr source queueingTime(packetPulled)
attr title "queueing times"
attr unit s
vector 150 SingleCell_Standalone.server.ppp[0].queue outgoingPacketLengths:vector ETV
attr interpolationmode none
attr recordingmode vector
attr source packetLength(packetPulled)
attr title "outgoing packet lengths"
attr unit b
vector 151 SingleCell_Standalone.server.ppp[0].ppp rcvdPkFromHl:vector(packetBytes) ETV
attr interpolationmode none
attr recordingmode vector(packetBytes)
attr source packetReceivedFromUpper
attr title "packets received from higher layer, packetBytes"
vector 152 SingleCell_Standalone.server.ppp[0].ppp transmissionState:vector ETV
attr interpolationmode sample-hold
attr recordingmode vector
attr source transmissionStateChanged
attr title "tx state"
vector 153 SingleCell_Standalone.server.ppp[0].ppp txPk:vector(packetBytes) ETV
attr interpolationmode none
attr recordingmode vector(packetBytes)
attr source packetSentToLower
attr title "packets transmitted, packetBytes"
vector 154 SingleCell_Standalone.router.ppp[0].ppp rxPkOk:vector(packetBytes) ETV
attr interpolationmode none
attr recordingmode vector(packetBytes)
attr source rxPkOk
attr title "packets received OK, packetBytes"
vector 155 SingleCell_Standalone.router.ppp[0].ppp passedUpPk:vector(packetBytes) ETV
attr interpolationmode none
attr recordingmode vector(packetBytes)
attr source packetSentToUpper
attr title "packets passed to higher layer, packetBytes"
vector 156 SingleCell_Standalone.router.ppp[1].queue incomingPacketLengths:vector ETV
attr interpolationmode none
attr recordingmode vector
attr source packetLength(packetPushStarted)
attr title "incoming packet lengths"
attr unit b
vector 157 SingleCell_Standalone.router.ppp[1].queue queueingTime:vector ETV
attr interpolationmode none
attr recordingmode vector
attr source queueingTime(packetPulled)
attr title "queueing times"
attr unit s
vector 158 SingleCell_Standalone.router.ppp[1].queue outgoingPacketLengths:vector ETV
attr interpolationmode none
attr recordingmode vector
attr source packetLength(packetPulled)
attr title "outgoing packet lengths"
attr unit b
vector 159 SingleCell_Standalone.router.ppp[1].ppp rcvdPkFromHl:vector(packetBytes) ETV
attr interpolationmode none
attr recordingmode vector(packetBytes)
attr source packetReceivedFromUpper
attr title "packets received from higher layer, packetBytes"
vector 160 SingleCell_Standalone.router.ppp[1].ppp transmissionState:vector ETV
attr interpolationmode sample-hold
attr recordingmode vector
attr source transmissionStateChanged
attr title "tx state"
vector 161 SingleCell_Standalone.router.ppp[1].ppp txPk:vector(packetBytes) ETV
attr interpolationmode none
attr recordingmode vector(packetBytes)
attr source packetSentToLower
attr title "packets transmitted, packetBytes"
vector 162 SingleCell_Standalone.upf.pppIf.ppp rxPkOk:vector(packetBytes) ETV
attr interpolationmode none
attr recordingmode vector(packetBytes)
attr source rxPkOk
attr title "packets received OK, packetBytes"
vector 163 SingleCell_Standalone.upf.pppIf.ppp passedUpPk:vector(packetBytes) ETV
attr interpolationmode none
attr recordingmode vector(packetBytes)
attr source packetSentToUpper
attr title "packets passed to higher layer, packetBytes"
vector 164 SingleCell_Standalone.upf.udp packetSent:vector(packetBytes) ETV
attr interpolationmode none
attr recordingmode vector(packetBytes)
attr source packetSent
attr title "packets sent, packetBytes"
vector 165 SingleCell_Standalone.upf.ppp[0].queue incomingPacketLengths:vector ETV
attr interpolationmode none
attr recordingmode vector
attr source packetLength(packetPushStarted)
attr title "incoming packet lengths"
attr unit b
vector 166 SingleCell_Standalone.upf.ppp[0].queue queueingTime:vector ETV
attr interpolationmode none
attr recordingmode vector
attr source queueingTime(packetPulled)
attr title "queueing times"
attr unit s
vector 167 SingleCell_Standalone.upf.ppp[0].queue outgoingPacketLengths:vector ETV
attr interpolationmode none
attr recordingmode vector
attr source packetLength(packetPulled)
attr title "outgoing packet lengths"
attr unit b
vector 168 SingleCell_Standalone.upf.ppp[0].ppp rcvdPkFromHl:vector(packetBytes) ETV
attr interpolationmode none
attr recordingmode vector(packetBytes)
attr source packetReceivedFromUpper
attr title "packets received from higher layer, packetBytes"
vector 169 SingleCell_Standalone.upf.ppp[0].ppp transmissionState:vector ETV
attr interpolationmode sample-hold
attr recordingmode vector
attr source transmissionStateChanged
attr title "tx state"
vector 170 SingleCell_Standalone.upf.ppp[0].ppp txPk:vector(packetBytes) ETV
attr interpolationmode none
attr recordingmode vector(packetBytes)
attr source packetSentToLower
attr title "packets transmitted, packetBytes"
vector 171 SingleCell_Standalone.iUpf.ppp[0].ppp rxPkOk:vector(packetBytes) ETV
attr interpolationmode none
attr recordingmode vector(packetBytes)
attr source rxPkOk
attr title "packets received OK, packetBytes"
vector 172 SingleCell_Standalone.iUpf.ppp[0].ppp passedUpPk:vector(packetBytes) ETV
attr interpolationmode none
attr recordingmode vector(packetBytes)
attr source packetSentToUpper
attr title "packets passed to higher layer, packetBytes"
vector 173 SingleCell_Standalone.iUpf.ppp[1].queue incomingPacketLengths:vector ETV
attr interpolationmode none
attr recordingmode vector
attr source packetLength(packetPushStarted)
attr title "incoming packet lengths"
attr unit b
vector 174 SingleCell_Standalone.iUpf.ppp[1].queue queueingTime:vector ETV
attr interpolationmode none
attr recordingmode vector
attr source queueingTime(packetPulled)
attr title "queueing times"
attr unit s
vector 175 SingleCell_Standalone.iUpf.ppp[1].queue outgoingPacketLengths:vector ETV
attr interpolationmode none
attr recordingmode vector
attr source packetLength(packetPulled)
attr title "outgoing packet lengths"
attr unit b
vector 176 SingleCell_Standalone.iUpf.ppp[1].ppp rcvdPkFromHl:vector(packetBytes) ETV
attr interpolationmode none
attr recordingmode vector(packetBytes)
attr source packetReceivedFromUpper
attr title "packets received from higher layer, packetBytes"
vector 177 SingleCell_Standalone.iUpf.ppp[1].ppp transmissionState:vector ETV
attr interpolationmode sample-hold
attr recordingmode vector
attr source transmissionStateChanged
attr title "tx state"
vector 178 SingleCell_Standalone.iUpf.ppp[1].ppp txPk:vector(packetBytes) ETV
attr interpolationmode none
attr recordingmode vector(packetBytes)
attr source packetSentToLower
attr title "packets transmitted, packetBytes"
vector 179 SingleCell_Standalone.gnb.pppIf.ppp rxPkOk:vector(packetBytes) ETV
attr interpolationmode none
attr recordingmode vector(packetBytes)
attr source rxPkOk
attr title "packets received OK, packetBytes"
vector 180 SingleCell_Standalone.gnb.pppIf.ppp passedUpPk:vector(packetBytes) ETV
attr interpolationmode none
attr recordingmode vector(packetBytes)
attr source packetSentToUpper
attr title "packets passed to higher layer, packetBytes"
vector 181 SingleCell_Standalone.gnb.udp packetReceived:vector(packetBytes) ETV
attr interpolationmode none
attr recordingmode vector(packetBytes)
attr source packetReceived
attr title "packets received, packetBytes"
vector 182 SingleCell_Standalone.gnb.cellularNic.pdcpRrc receivedPacketFromUpperLayer:vector(packetBytes) ETV
attr interpolationmode none
attr recordingmode vector(packetBytes)
attr source receivedPacketFromUpperLayer
vector 183 SingleCell_Standalone.gnb.cellularNic.pdcpRrc sentPacketToLowerLayer:vector(packetBytes) ETV
attr interpolationmode none
attr recordingmode vector(packetBytes)
attr source sentPacketToLowerLayer
vector 184 SingleCell_Standalone.gnb.cellularNic.rlc.um receivedPacketFromUpperLayer:vector(packetBytes) ETV
attr interpolationmode none
attr recordingmode vector(packetBytes)
attr source receivedPacketFromUpperLayer
vector 185 SingleCell_Standalone.bgCell[0].bgTrafficGenerator.bgUE[5].generator bgAverageCqiDl:vector ETV
attr recordingmode vector
attr source bgAverageCqiDl
attr title "Average DL CQI for background UEs"
attr unit ""
vector 186 SingleCell_Standalone.bgCell[0].bgTrafficGenerator.bgUE[5].generator bgHarqErrorRateDl:vector ETV
attr recordingmode vector
attr source bgHarqErrorRateDl
attr title "Average DL HARQ error rate for background UEs"
attr unit ""
vector 187 SingleCell_Standalone.bgCell[1].bgTrafficGenerator.bgUE[5].generator bgAverageCqiDl:vector ETV
attr recordingmode vector
attr source bgAverageCqiDl
attr title "Average DL CQI for background UEs"
attr unit ""
vector 188 SingleCell_Standalone.bgCell[1].bgTrafficGenerator.bgUE[5].generator bgHarqErrorRateDl:vector ETV
attr recordingmode vector
attr source bgHarqErrorRateDl
attr title "Average DL HARQ error rate for background UEs"
attr unit ""
vector 189 SingleCell_Standalone.ue[1].cellularNic.nrRlc.um rlcThroughputDl:vector ETV
attr recordingmode vector
attr source rlcThroughputDl
attr title "Throughput at the rlc layer DL"
attr unit Bps
vector 190 SingleCell_Standalone.ue[1].cellularNic.nrRlc.um rlcPacketLossDl:vector ETV
attr recordingmode vector
attr source rlcPacketLossDl
attr title "rlc Packet Loss"
attr unit ""
vector 191 SingleCell_Standalone.ue[1].cellularNic.nrRlc.um rlcPacketLossTotal:vector ETV
attr recordingmode vector
attr source rlcPacketLossTotal
attr title "rlc Packet Loss"
attr unit ""
vector 192 SingleCell_Standalone.ue[1].cellularNic.nrRlc.um rlcDelayDl:vector ETV
attr recordingmode vector
attr source rlcDelayDl
attr title "Delay at the rlc layer DL"
attr unit s
vector 193 SingleCell_Standalone.ue[1].cellularNic.nrRlc.um sentPacketToUpperLayer:vector(packetBytes) ETV
attr interpolationmode none
attr recordingmode vector(packetBytes)
attr source sentPacketToUpperLayer
vector 194 SingleCell_Standalone.ue[1].cellularNic.pdcpRrc receivedPacketFromLowerLayer:vector(packetBytes) ETV
attr interpolationmode none
attr recordingmode vector(packetBytes)
attr source receivedPacketFromLowerLayer
vector 195 SingleCell_Standalone.ue[1].cellularNic.pdcpRrc sentPacketToUpperLayer:vector(packetBytes) ETV
attr interpolationmode none
attr recordingmode vector(packetBytes)
attr source sentPacketToUpperLayer
vector 196 SingleCell_Standalone.ue[1].udp packetReceived:vector(packetBytes) ETV
attr interpolationmode none
attr recordingmode vector(packetBytes)
attr source packetReceived
attr title "packets received, packetBytes"
vector 197 SingleCell_Standalone.ue[1].app[0] cbrReceivedBytes:vector ETV
attr recordingmode vector
attr source cbrReceivedBytesSignal
attr title "Bytes received at the application level"
attr unit Bps
vector 198 SingleCell_Standalone.ue[1].app[0] cbrFrameDelay:vector ETV
attr recordingmode vector
attr source cbrFrameDelaySignal
attr title "Cbr Frame Delay"
attr unit s
vector 199 SingleCell_Standalone.ue[1].app[0] cbrRcvdPkt:vector ETV
attr recordingmode vector
attr source cbrRcvdPkt
attr title "Received packet ID"
attr unit ""
vector 200 SingleCell_Standalone.ue[5].cellularNic.nrRlc.um rlcThroughputDl:vector ETV
attr recordingmode vector
attr source rlcThroughputDl
attr title "Throughput at the rlc layer DL"
attr unit Bps
vector 201 SingleCell_Standalone.ue[5].cellularNic.nrRlc.um rlcPacketLossDl:vector ETV
attr recordingmode vector
attr source rlcPacketLossDl
attr title "rlc Packet Loss"
attr unit ""
vector 202 SingleCell_Standalone.ue[5].cellularNic.nrRlc.um rlcPacketLossTotal:vector ETV
attr recordingmode vector
attr source rlcPacketLossTotal
attr title "rlc Packet Loss"
attr unit ""
vector 203 SingleCell_Standalone.ue[5].cellularNic.nrRlc.um rlcDelayDl:vector ETV
attr recordingmode vector
attr source rlcDelayDl
attr title "Delay at the rlc layer DL"
attr unit s
vector 204 SingleCell_Standalone.ue[5].cellularNic.nrRlc.um sentPacketToUpperLayer:vector(packetBytes) ETV
attr interpolationmode none
attr recordingmode vector(packetBytes)
attr source sentPacketToUpperLayer
vector 205 SingleCell_Standalone.ue[5].cellularNic.pdcpRrc receivedPacketFromLowerLayer:vector(packetBytes) ETV
attr interpolationmode none
attr recordingmode vector(packetBytes)
attr source receivedPacketFromLowerLayer
vector 206 SingleCell_Standalone.ue[5].cellularNic.pdcpRrc sentPacketToUpperLayer:vector(packetBytes) ETV
attr interpolationmode none
attr recordingmode vector(packetBytes)
attr source sentPacketToUpperLayer
vector 207 SingleCell_Standalone.ue[5].udp packetReceived:vector(packetBytes) ETV
attr interpolationmode none
attr recordingmode vector(packetBytes)
attr source packetReceived
attr title "packets received, packetBytes"
vector 208 SingleCell_Standalone.ue[5].app[0] cbrReceivedBytes:vector ETV
attr recordingmode vector
attr source cbrReceivedBytesSignal
attr title "Bytes received at the application level"
attr unit Bps
vector 209 SingleCell_Standalone.ue[5].app[0] cbrFrameDelay:vector ETV
attr recordingmode vector
attr source cbrFrameDelaySignal
attr title "Cbr Frame Delay"
attr unit s
vector 210 SingleCell_Standalone.ue[5].app[0] cbrRcvdPkt:vector ETV
attr recordingmode vector
attr source cbrRcvdPkt
attr title "Received packet ID"
attr unit ""
vector 211 SingleCell_Standalone.ue[10].cellularNic.nrMac sentPacketToLowerLayer:vector(packetBytes) ETV
attr interpolationmode none
attr recordingmode vector(packetBytes)
attr source sentPacketToLowerLayer
vector 212 SingleCell_Standalone.ue[10].cellularNic.nrMac sentPacketToUpperLayer:vector(packetBytes) ETV
attr interpolationmode none
attr recordingmode vector(packetBytes)
attr source sentPacketToUpperLayer
vector 213 SingleCell_Standalone.ue[10].cellularNic.nrRlc.um receivedPacketFromLowerLayer:vector(packetBytes) ETV
attr interpolationmode none
attr recordingmode vector(packetBytes)
attr source receivedPacketFromLowerLayer
vector 214 SingleCell_Standalone.ue[10].cellularNic.nrRlc.um rlcPduThroughputDl:vector ETV
attr recordingmode vector
attr source rlcPduThroughputDl
attr title "Throughput at the rlc layer DL"
attr unit Bps
vector 215 SingleCell_Standalone.ue[10].cellularNic.nrRlc.um rlcPduDelayDl:vector ETV
attr recordingmode vector
attr source rlcPduDelayDl
attr title "Delay at the rlc layer UL"
attr unit s
vector 216 SingleCell_Standalone.ue[10].cellularNic.nrRlc.um rlcPduPacketLossDl:vector ETV
attr recordingmode vector
attr source rlcPduPacketLossDl
attr title "rlc Packet Loss"
attr unit ""
vector 217 SingleCell_Standalone.ue[14].cellularNic.nrMac sentPacketToLowerLayer:vector(packetBytes) ETV
attr interpolationmode none
attr recordingmode vector(packetBytes)
attr source sentPacketToLowerLayer
vector 218 SingleCell_Standalone.ue[14].cellularNic.nrMac sentPacketToUpperLayer:vector(packetBytes) ETV
attr interpolationmode none
attr recordingmode vector(packetBytes)
attr source sentPacketToUpperLayer
vector 219 SingleCell_Standalone.ue[14].cellularNic.nrRlc.um receivedPacketFromLowerLayer:vector(packetBytes) ETV
attr interpolationmode none
attr recordingmode vector(packetBytes)
attr source receivedPacketFromLowerLayer
vector 220 SingleCell_Standalone.ue[14].cellularNic.nrRlc.um rlcPduThroughputDl:vector ETV
attr recordingmode vector
attr source rlcPduThroughputDl
attr title "Throughput at the rlc layer DL"
attr unit Bps
vector 221 SingleCell_Standalone.ue[14].cellularNic.nrRlc.um rlcPduDelayDl:vector ETV
attr recordingmode vector
attr source rlcPduDelayDl
attr title "Delay at the rlc layer UL"
attr unit s
vector 222 SingleCell_Standalone.ue[14].cellularNic.nrRlc.um rlcPduPacketLossDl:vector ETV
attr recordingmode vector
attr source rlcPduPacketLossDl
attr title "rlc Packet Loss"
attr unit ""
vector 223 SingleCell_Standalone.ue[1].cellularNic.nrMac harqErrorRate_1st_Dl:vector ETV
attr recordingmode vector
attr source harqErrorRate_1st_Dl
attr title "Harq Error Rate Dl (1st tx)"
attr unit ""
vector 224 SingleCell_Standalone.ue[1].cellularNic.nrMac harqErrorRateDl:vector ETV
attr recordingmode vector
attr source harqErrorRateDl
attr title "Harq Error Rate Dl"
attr unit ""
vector 225 SingleCell_Standalone.ue[1].cellularNic.nrMac harqTxAttemptsDl:vector ETV
attr recordingmode vector
attr source harqTxAttemptsDl
attr title "Harq Tx Attempts Dl"
attr unit ""
vector 226 SingleCell_Standalone.ue[10].cellularNic.nrPhy averageCqiDl:vector ETV
attr recordingmode vector
attr source averageCqiDl
attr title "Average Cqi reported in DL"
attr unit cqi
vector 227 SingleCell_Standalone.ue[10].cellularNic.nrChannelModel[0] distance:vector ETV
attr recordingmode vector
attr source distance
attr title "distance between UE and serving base station"
attr unit meters
vector 228 SingleCell_Standalone.ue[10].cellularNic.nrChannelModel[0] rcvdSinrDl:vector ETV
attr recordingmode vector
attr source rcvdSinrDl
attr title "SINR measured at packet reception, DL"
attr unit dB
vector 229 SingleCell_Standalone.ue[10].cellularNic.nrMac receivedPacketFromLowerLayer:vector(packetBytes) ETV
attr interpolationmode none
attr recordingmode vector(packetBytes)
attr source receivedPacketFromLowerLayer
vector 230 SingleCell_Standalone.bgCell[0].bgTrafficGenerator.bgUE[0].generator bgMeasuredSinrDl:vector ETV
attr recordingmode vector
attr source bgMeasuredSinrDl
attr title "Average DL SINR for background UEs"
attr unit ""
vector 231 SingleCell_Standalone.bgCell[0].bgTrafficGenerator.bgUE[1].generator bgMeasuredSinrDl:vector ETV
attr recordingmode vector
attr source bgMeasuredSinrDl
attr title "Average DL SINR for background UEs"
attr unit ""
vector 232 SingleCell_Standalone.bgCell[0].bgTrafficGenerator.bgUE[2].generator bgMeasuredSinrDl:vector ETV
attr recordingmode vector
attr source bgMeasuredSinrDl
attr title "Average DL SINR for background UEs"
attr unit ""
vector 233 SingleCell_Standalone.bgCell[0].bgTrafficGenerator.bgUE[3].generator bgMeasuredSinrDl:vector ETV
attr recordingmode vector
attr source bgMeasuredSinrDl
attr title "Average DL SINR for background UEs"
attr unit ""
vector 234 SingleCell_Standalone.bgCell[0].bgTrafficGenerator.bgUE[4].generator bgMeasuredSinrDl:vector ETV
attr recordingmode vector
attr source bgMeasuredSinrDl
attr title "Average DL SINR for background UEs"
attr unit ""
vector 235 SingleCell_Standalone.bgCell[0].bgTrafficGenerator.bgUE[5].generator bgMeasuredSinrDl:vector ETV
attr recordingmode vector
attr source bgMeasuredSinrDl
attr title "Average DL SINR for background UEs"
attr unit ""
vector 236 SingleCell_Standalone.bgCell[0].bgTrafficGenerator.bgUE[6].generator bgMeasuredSinrDl:vector ETV
attr recordingmode vector
attr source bgMeasuredSinrDl
attr title "Average DL SINR for background UEs"
attr unit ""
vector 237 SingleCell_Standalone.bgCell[0].bgTrafficGenerator.bgUE[7].generator bgMeasuredSinrDl:vector ETV
attr recordingmode vector
attr source bgMeasuredSinrDl
attr title "Average DL SINR for background UEs"
attr unit ""
vector 238 SingleCell_Standalone.bgCell[0].bgTrafficGenerator.bgUE[8].generator bgMeasuredSinrDl:vector ETV
attr recordingmode vector
attr source bgMeasuredSinrDl
attr title "Average DL SINR for background UEs"
attr unit ""
vector 239 SingleCell_Standalone.bgCell[0].bgTrafficGenerator.bgUE[9].generator bgMeasuredSinrDl:vector ETV
attr recordingmode vector
attr source bgMeasuredSinrDl
attr title "Average DL SINR for background UEs"
attr unit ""
vector 240 SingleCell_Standalone.bgCell[1].bgTrafficGenerator.bgUE[0].generator bgMeasuredSinrDl:vector ETV
attr recordingmode vector
attr source bgMeasuredSinrDl
attr title "Average DL SINR for background UEs"
attr unit ""
vector 241 SingleCell_Standalone.bgCell[1].bgTrafficGenerator.bgUE[1].generator bgMeasuredSinrDl:vector ETV
attr recordingmode vector
attr source bgMeasuredSinrDl
attr title "Average DL SINR for background UEs"
attr unit ""
vector 242 SingleCell_Standalone.bgCell[1].bgTrafficGenerator.bgUE[2].generator bgMeasuredSinrDl:vector ETV
attr recordingmode vector
attr source bgMeasuredSinrDl
attr title "Average DL SINR for background UEs"
attr unit ""
vector 243 SingleCell_Standalone.bgCell[1].bgTrafficGenerator.bgUE[3].generator bgMeasuredSinrDl:vector ETV
attr recordingmode vector
attr source bgMeasuredSinrDl
attr title "Average DL SINR for background UEs"
attr unit ""
vector 244 SingleCell_Standalone.bgCell[1].bgTrafficGenerator.bgUE[4].generator bgMeasuredSinrDl:vector ETV
attr recordingmode vector
attr source bgMeasuredSinrDl
attr title "Average DL SINR for background UEs"
attr unit ""
vector 245 SingleCell_Standalone.bgCell[1].bgTrafficGenerator.bgUE[5].generator bgMeasuredSinrDl:vector ETV
attr recordingmode vector
attr source bgMeasuredSinrDl
attr title "Average DL SINR for background UEs"
attr unit ""
vector 246 SingleCell_Standalone.bgCell[1].bgTrafficGenerator.bgUE[6].generator bgMeasuredSinrDl:vector ETV
attr recordingmode vector
attr source bgMeasuredSinrDl
attr title "Average DL SINR for background UEs"
attr unit ""
vector 247 SingleCell_Standalone.bgCell[1].bgTrafficGenerator.bgUE[7].generator bgMeasuredSinrDl:vector ETV
attr recordingmode vector
attr source bgMeasuredSinrDl
attr title "Average DL SINR for background UEs"
attr unit ""
vector 248 SingleCell_Standalone.bgCell[1].bgTrafficGenerator.bgUE[8].generator bgMeasuredSinrDl:vector ETV
attr recordingmode vector
attr source bgMeasuredSinrDl
attr title "Average DL SINR for background UEs"
attr unit ""
vector 249 SingleCell_Standalone.bgCell[1].bgTrafficGenerator.bgUE[9].generator bgMeasuredSinrDl:vector ETV
attr recordingmode vector
attr source bgMeasuredSinrDl
attr title "Average DL SINR for background UEs"
attr unit ""
vector 250 SingleCell_Standalone.ue[7].cellularNic.nrMac sentPacketToLowerLayer:vector(packetBytes) ETV
attr interpolationmode none
attr recordingmode vector(packetBytes)
attr source sentPacketToLowerLayer
vector 251 SingleCell_Standalone.ue[7].cellularNic.nrMac sentPacketToUpperLayer:vector(packetBytes) ETV
attr interpolationmode none
attr recordingmode vector(packetBytes)
attr source sentPacketToUpperLayer
vector 252 SingleCell_Standalone.ue[7].cellularNic.nrRlc.um receivedPacketFromLowerLayer:vector(packetBytes) ETV
attr interpolationmode none
attr recordingmode vector(packetBytes)
attr source receivedPacketFromLowerLayer
vector 253 SingleCell_Standalone.ue[7].cellularNic.nrRlc.um rlcPduThroughputDl:vector ETV
attr recordingmode vector
attr source rlcPduThroughputDl
attr title "Throughput at the rlc layer DL"
attr unit Bps
vector 254 SingleCell_Standalone.ue[7].cellularNic.nrRlc.um rlcPduDelayDl:vector ETV
attr recordingmode vector
attr source rlcPduDelayDl
attr title "Delay at the rlc layer UL"
attr unit s
vector 255 SingleCell_Standalone.ue[7].cellularNic.nrRlc.um rlcPduPacketLossDl:vector ETV
attr recordingmode vector
attr source rlcPduPacketLossDl
attr title "rlc Packet Loss"
attr unit ""
vector 256 SingleCell_Standalone.ue[10].cellularNic.nrMac harqErrorRate_1st_Dl:vector ETV
attr recordingmode vector
attr source harqErrorRate_1st_Dl
attr title "Harq Error Rate Dl (1st tx)"
attr unit ""
vector 257 SingleCell_Standalone.ue[10].cellularNic.nrMac harqErrorRateDl:vector ETV
attr recordingmode vector
attr source harqErrorRateDl
attr title "Harq Error Rate Dl"
attr unit ""
vector 258 SingleCell_Standalone.ue[10].cellularNic.nrMac harqTxAttemptsDl:vector ETV
attr recordingmode vector
attr source harqTxAttemptsDl
attr title "Harq Tx Attempts Dl"
attr unit ""
vector 259 SingleCell_Standalone.ue[14].cellularNic.nrMac harqErrorRate_1st_Dl:vector ETV
attr recordingmode vector
attr source harqErrorRate_1st_Dl
attr title "Harq Error Rate Dl (1st tx)"
attr unit ""
vector 260 SingleCell_Standalone.ue[14].cellularNic.nrMac harqErrorRateDl:vector ETV
attr recordingmode vector
attr source harqErrorRateDl
attr title "Harq Error Rate Dl"
attr unit ""
vector 261 SingleCell_Standalone.ue[14].cellularNic.nrMac harqTxAttemptsDl:vector ETV
attr recordingmode vector
attr source harqTxAttemptsDl
attr title "Harq Tx Attempts Dl"
attr unit ""
vector 262 SingleCell_Standalone.ue[4].cellularNic.nrPhy averageCqiDl:vector ETV
attr recordingmode vector
attr source averageCqiDl
attr title "Average Cqi reported in DL"
attr unit cqi
vector 263 SingleCell_Standalone.ue[4].cellularNic.nrChannelModel[0] distance:vector ETV
attr recordingmode vector
attr source distance
attr title "distance between UE and serving base station"
attr unit meters
vector 264 SingleCell_Standalone.ue[4].cellularNic.nrChannelModel[0] rcvdSinrDl:vector ETV
attr recordingmode vector
attr source rcvdSinrDl
attr title "SINR measured at packet reception, DL"
attr unit dB
vector 265 SingleCell_Standalone.ue[4].cellularNic.nrMac receivedPacketFromLowerLayer:vector(packetBytes) ETV
attr interpolationmode none
attr recordingmode vector(packetBytes)
attr source receivedPacketFromLowerLayer
vector 266 SingleCell_Standalone.ue[3].cellularNic.nrMac sentPacketToLowerLayer:vector(packetBytes) ETV
attr interpolationmode none
attr recordingmode vector(packetBytes)
attr source sentPacketToLowerLayer
vector 267 SingleCell_Standalone.ue[3].cellularNic.nrMac sentPacketToUpperLayer:vector(packetBytes) ETV
attr interpolationmode none
attr recordingmode vector(packetBytes)
attr source sentPacketToUpperLayer
vector 268 SingleCell_Standalone.ue[3].cellularNic.nrRlc.um receivedPacketFromLowerLayer:vector(packetBytes) ETV
attr interpolationmode none
attr recordingmode vector(packetBytes)
attr source receivedPacketFromLowerLayer
vector 269 SingleCell_Standalone.ue[3].cellularNic.nrRlc.um rlcPduThroughputDl:vector ETV
attr recordingmode vector
attr source rlcPduThroughputDl
attr title "Throughput at the rlc layer DL"
attr unit Bps
vector 270 SingleCell_Standalone.ue[3].cellularNic.nrRlc.um rlcPduDelayDl:vector ETV
attr recordingmode vector
attr source rlcPduDelayDl
attr title "Delay at the rlc layer UL"
attr unit s
vector 271 SingleCell_Standalone.ue[3].cellularNic.nrRlc.um rlcPduPacketLossDl:vector ETV
attr recordingmode vector
attr source rlcPduPacketLossDl
attr title "rlc Packet Loss"
attr unit ""
vector 272 SingleCell_Standalone.ue[7].cellularNic.nrRlc.um rlcThroughputDl:vector ETV
attr recordingmode vector
attr source rlcThroughputDl
attr title "Throughput at the rlc layer DL"
attr unit Bps
vector 273 SingleCell_Standalone.ue[7].cellularNic.nrRlc.um rlcPacketLossDl:vector ETV
attr recordingmode vector
attr source rlcPacketLossDl
attr title "rlc Packet Loss"
attr unit ""
vector 274 SingleCell_Standalone.ue[7].cellularNic.nrRlc.um rlcPacketLossTotal:vector ETV
attr recordingmode vector
attr source rlcPacketLossTotal
attr title "rlc Packet Loss"
attr unit ""
vector 275 SingleCell_Standalone.ue[7].cellularNic.nrRlc.um rlcDelayDl:vector ETV
attr recordingmode vector
attr source rlcDelayDl
attr title "Delay at the rlc layer DL"
attr unit s
vector 276 SingleCell_Standalone.ue[7].cellularNic.nrRlc.um sentPacketToUpperLayer:vector(packetBytes) ETV
attr interpolationmode none
attr recordingmode vector(packetBytes)
attr source sentPacketToUpperLayer
vector 277 SingleCell_Standalone.ue[7].cellularNic.pdcpRrc receivedPacketFromLowerLayer:vector(packetBytes) ETV
attr interpolationmode none
attr recordingmode vector(packetBytes)
attr source receivedPacketFromLowerLayer
vector 278 SingleCell_Standalone.ue[7].cellularNic.pdcpRrc sentPacketToUpperLayer:vector(packetBytes) ETV
attr interpolationmode none
attr recordingmode vector(packetBytes)
attr source sentPacketToUpperLayer
vector 279 SingleCell_Standalone.ue[7].udp packetReceived:vector(packetBytes) ETV
attr interpolationmode none
attr recordingmode vector(packetBytes)
attr source packetReceived
attr title "packets received, packetBytes"
vector 280 SingleCell_Standalone.ue[7].app[0] cbrReceivedBytes:vector ETV
attr recordingmode vector
attr source cbrReceivedBytesSignal
attr title "Bytes received at the application level"
attr unit Bps
vector 281 SingleCell_Standalone.ue[7].app[0] cbrFrameDelay:vector ETV
attr recordingmode vector
attr source cbrFrameDelaySignal
attr title "Cbr Frame Delay"
attr unit s
vector 282 SingleCell_Standalone.ue[7].app[0] cbrRcvdPkt:vector ETV
attr recordingmode vector
attr source cbrRcvdPkt
attr title "Received packet ID"
attr unit ""
vector 283 SingleCell_Standalone.ue[11].cellularNic.nrMac sentPacketToLowerLayer:vector(packetBytes) ETV
attr interpolationmode none
attr recordingmode vector(packetBytes)
attr source sentPacketToLowerLayer
vector 284 SingleCell_Standalone.ue[11].cellularNic.nrMac sentPacketToUpperLayer:vector(packetBytes) ETV
attr interpolationmode none
attr recordingmode vector(packetBytes)
attr source sentPacketToUpperLayer
vector 285 SingleCell_Standalone.ue[11].cellularNic.nrRlc.um receivedPacketFromLowerLayer:vector(packetBytes) ETV
attr interpolationmode none
attr recordingmode vector(packetBytes)
attr source receivedPacketFromLowerLayer
vector 286 SingleCell_Standalone.ue[11].cellularNic.nrRlc.um rlcPduThroughputDl:vector ETV
attr recordingmode vector
attr source rlcPduThroughputDl
attr title "Throughput at the rlc layer DL"
attr unit Bps
vector 287 SingleCell_Standalone.ue[11].cellularNic.nrRlc.um rlcPduDelayDl:vector ETV
attr recordingmode vector
attr source rlcPduDelayDl
attr title "Delay at the rlc layer UL"
attr unit s
vector 288 SingleCell_Standalone.ue[11].cellularNic.nrRlc.um rlcPduPacketLossDl:vector ETV
attr recordingmode vector
attr source rlcPduPacketLossDl
attr title "rlc Packet Loss"
attr unit ""
vector 289 SingleCell_Standalone.ue[14].cellularNic.nrRlc.um rlcThroughputDl:vector ETV
attr recordingmode vector
attr source rlcThroughputDl
attr title "Throughput at the rlc layer DL"
attr unit Bps
vector 290 SingleCell_Standalone.ue[14].cellularNic.nrRlc.um rlcPacketLossDl:vector ETV
attr recordingmode vector
attr source rlcPacketLossDl
attr title "rlc Packet Loss"
attr unit ""
vector 291 SingleCell_Standalone.ue[14].cellularNic.nrRlc.um rlcPacketLossTotal:vector ETV
attr recordingmode vector
attr source rlcPacketLossTotal
attr title "rlc Packet Loss"
attr unit ""
vector 292 SingleCell_Standalone.ue[14].cellularNic.nrRlc.um rlcDelayDl:vector ETV
attr recordingmode vector
attr source rlcDelayDl
attr title "Delay at the rlc layer DL"
attr unit s
vector 293 SingleCell_Standalone.ue[14].cellularNic.nrRlc.um sentPacketToUpperLayer:vector(packetBytes) ETV
attr interpolationmode none
attr recordingmode vector(packetBytes)
attr source sentPacketToUpperLayer
vector 294 SingleCell_Standalone.ue[14].cellularNic.pdcpRrc receivedPacketFromLowerLayer:vector(packetBytes) ETV
attr interpolationmode none
attr recordingmode vector(packetBytes)
attr source receivedPacketFromLowerLayer
vector 295 SingleCell_Standalone.ue[14].cellularNic.pdcpRrc sentPacketToUpperLayer:vector(packetBytes) ETV
attr interpolationmode none
attr recordingmode vector(packetBytes)
attr source sentPacketToUpperLayer
vector 296 SingleCell_Standalone.ue[14].udp packetReceived:vector(packetBytes) ETV
attr interpolationmode none
attr recordingmode vector(packetBytes)
attr source packetReceived
attr title "packets received, packetBytes"
vector 297 SingleCell_Standalone.ue[14].app[0] cbrReceivedBytes:vector ETV
attr recordingmode vector
attr source cbrReceivedBytesSignal
attr title "Bytes received at the application level"
attr unit Bps
vector 298 SingleCell_Standalone.ue[14].app[0] cbrFrameDelay:vector ETV
attr recordingmode vector
attr source cbrFrameDelaySignal
attr title "Cbr Frame Delay"
attr unit s
vector 299 SingleCell_Standalone.ue[14].app[0] cbrRcvdPkt:vector ETV
attr recordingmode vector
attr source cbrRcvdPkt
attr title "Received packet ID"
attr unit ""
vector 300 SingleCell_Standalone.ue[7].cellularNic.nrMac harqErrorRate_1st_Dl:vector ETV
attr recordingmode vector
attr source harqErrorRate_1st_Dl
attr title "Harq Error Rate Dl (1st tx)"
attr unit ""
vector 301 SingleCell_Standalone.ue[7].cellularNic.nrMac harqErrorRateDl:vector ETV
attr recordingmode vector
attr source harqErrorRateDl
attr title "Harq Error Rate Dl"
attr unit ""
vector 302 SingleCell_Standalone.ue[7].cellularNic.nrMac harqTxAttemptsDl:vector ETV
attr recordingmode vector
attr source harqTxAttemptsDl
attr title "Harq Tx Attempts Dl"
attr unit ""
vector 303 SingleCell_Standalone.ue[6].cellularNic.nrPhy averageCqiDl:vector ETV
attr recordingmode vector
attr source averageCqiDl
attr title "Average Cqi reported in DL"
attr unit cqi
vector 304 SingleCell_Standalone.ue[6].cellularNic.nrChannelModel[1] distance:vector ETV
attr recordingmode vector
attr source distance
attr title "distance between UE and serving base station"
attr unit meters
vector 305 SingleCell_Standalone.ue[6].cellularNic.nrChannelModel[1] rcvdSinrDl:vector ETV
attr recordingmode vector
attr source rcvdSinrDl
attr title "SINR measured at packet reception, DL"
attr unit dB
vector 306 SingleCell_Standalone.ue[6].cellularNic.nrMac receivedPacketFromLowerLayer:vector(packetBytes) ETV
attr interpolationmode none
attr recordingmode vector(packetBytes)
attr source receivedPacketFromLowerLayer
vector 307 SingleCell_Standalone.ue[10].cellularNic.nrRlc.um rlcThroughputDl:vector ETV
attr recordingmode vector
attr source rlcThroughputDl
attr title "Throughput at the rlc layer DL"
attr unit Bps
vector 308 SingleCell_Standalone.ue[10].cellularNic.nrRlc.um rlcPacketLossDl:vector ETV
attr recordingmode vector
attr source rlcPacketLossDl
attr title "rlc Packet Loss"
attr unit ""
vector 309 SingleCell_Standalone.ue[10].cellularNic.nrRlc.um rlcPacketLossTotal:vector ETV
attr recordingmode vector
attr source rlcPacketLossTotal
attr title "rlc Packet Loss"
attr unit ""
vector 310 SingleCell_Standalone.ue[10].cellularNic.nrRlc.um rlcDelayDl:vector ETV
attr recordingmode vector
attr source rlcDelayDl
attr title "Delay at the rlc layer DL"
attr unit s
vector 311 SingleCell_Standalone.ue[10].cellularNic.nrRlc.um sentPacketToUpperLayer:vector(packetBytes) ETV
attr interpolationmode none
attr recordingmode vector(packetBytes)
attr source sentPacketToUpperLayer
vector 312 SingleCell_Standalone.ue[10].cellularNic.pdcpRrc receivedPacketFromLowerLayer:vector(packetBytes) ETV
attr interpolationmode none
attr recordingmode vector(packetBytes)
attr source receivedPacketFromLowerLayer
vector 313 SingleCell_Standalone.ue[10].cellularNic.pdcpRrc sentPacketToUpperLayer:vector(packetBytes) ETV
attr interpolationmode none
attr recordingmode vector(packetBytes)
attr source sentPacketToUpperLayer
vector 314 SingleCell_Standalone.ue[10].udp packetReceived:vector(packetBytes) ETV
attr interpolationmode none
attr recordingmode vector(packetBytes)
attr source packetReceived
attr title "packets received, packetBytes"
vector 315 SingleCell_Standalone.ue[10].app[0] cbrReceivedBytes:vector ETV
attr recordingmode vector
attr source cbrReceivedBytesSignal
attr title "Bytes received at the application level"
attr unit Bps
vector 316 SingleCell_Standalone.ue[10].app[0] cbrFrameDelay:vector ETV
attr recordingmode vector
attr source cbrFrameDelaySignal
attr title "Cbr Frame Delay"
attr unit s
vector 317 SingleCell_Standalone.ue[10].app[0] cbrRcvdPkt:vector ETV
attr recordingmode vector
attr source cbrRcvdPkt
attr title "Received packet ID"
attr unit ""
vector 318 SingleCell_Standalone.ue[11].cellularNic.nrRlc.um rlcThroughputDl:vector ETV
attr recordingmode vector
attr source rlcThroughputDl
attr title "Throughput at the rlc layer DL"
attr unit Bps
vector 319 SingleCell_Standalone.ue[11].cellularNic.nrRlc.um rlcPacketLossDl:vector ETV
attr recordingmode vector
attr source rlcPacketLossDl
attr title "rlc Packet Loss"
attr unit ""
vector 320 SingleCell_Standalone.ue[11].cellularNic.nrRlc.um rlcPacketLossTotal:vector ETV
attr recordingmode vector
attr source rlcPacketLossTotal
attr title "rlc Packet Loss"
attr unit ""
vector 321 SingleCell_Standalone.ue[11].cellularNic.nrRlc.um rlcDelayDl:vector ETV
attr recordingmode vector
attr source rlcDelayDl
attr title "Delay at the rlc layer DL"
attr unit s
vector 322 SingleCell_Standalone.ue[11].cellularNic.nrRlc.um sentPacketToUpperLayer:vector(packetBytes) ETV
attr interpolationmode none
attr recordingmode vector(packetBytes)
attr source sentPacketToUpperLayer
vector 323 SingleCell_Standalone.ue[11].cellularNic.pdcpRrc receivedPacketFromLowerLayer:vector(packetBytes) ETV
attr interpolationmode none
attr recordingmode vector(packetBytes)
attr source receivedPacketFromLowerLayer
vector 324 SingleCell_Standalone.ue[11].cellularNic.pdcpRrc sentPacketToUpperLayer:vector(packetBytes) ETV
attr interpolationmode none
attr recordingmode vector(packetBytes)
attr source sentPacketToUpperLayer
vector 325 SingleCell_Standalone.ue[11].udp packetReceived:vector(packetBytes) ETV
attr interpolationmode none
attr recordingmode vector(packetBytes)
attr source packetReceived
attr title "packets received, packetBytes"
vector 326 SingleCell_Standalone.ue[11].app[0] cbrReceivedBytes:vector ETV
attr recordingmode vector
attr source cbrReceivedBytesSignal
attr title "Bytes received at the application level"
attr unit Bps
vector 327 SingleCell_Standalone.ue[11].app[0] cbrFrameDelay:vector ETV
attr recordingmode vector
attr source cbrFrameDelaySignal
attr title "Cbr Frame Delay"
attr unit s
vector 328 SingleCell_Standalone.ue[11].app[0] cbrRcvdPkt:vector ETV
attr recordingmode vector
attr source cbrRcvdPkt
attr title "Received packet ID"
attr unit ""
vector 329 SingleCell_Standalone.ue[0].cellularNic.nrChannelModel[0] measuredSinrUl:vector ETV
attr recordingmode vector
attr source measuredSinrUl
attr title "SINR measured at feedback computation, UL"
attr unit dB
vector 330 SingleCell_Standalone.ue[0].cellularNic.nrChannelModel[0] measuredSinrDl:vector ETV
attr recordingmode vector
attr source measuredSinrDl
attr title "SINR measured at feedback computation, DL"
attr unit dB
vector 331 SingleCell_Standalone.ue[0].cellularNic.nrChannelModel[1] measuredSinrUl:vector ETV
attr recordingmode vector
attr source measuredSinrUl
attr title "SINR measured at feedback computation, UL"
attr unit dB
vector 332 SingleCell_Standalone.ue[0].cellularNic.nrChannelModel[1] measuredSinrDl:vector ETV
attr recordingmode vector
attr source measuredSinrDl
attr title "SINR measured at feedback computation, DL"
attr unit dB
vector 333 SingleCell_Standalone.ue[1].cellularNic.nrChannelModel[0] measuredSinrUl:vector ETV
attr recordingmode vector
attr source measuredSinrUl
attr title "SINR measured at feedback computation, UL"
attr unit dB
vector 334 SingleCell_Standalone.ue[1].cellularNic.nrChannelModel[0] measuredSinrDl:vector ETV
attr recordingmode vector
attr source measuredSinrDl
attr title "SINR measured at feedback computation, DL"
attr unit dB
vector 335 SingleCell_Standalone.ue[1].cellularNic.nrChannelModel[1] measuredSinrUl:vector ETV
attr recordingmode vector
attr source measuredSinrUl
attr title "SINR measured at feedback computation, UL"
attr unit dB
vector 336 SingleCell_Standalone.ue[1].cellularNic.nrChannelModel[1] measuredSinrDl:vector ETV
attr recordingmode vector
attr source measuredSinrDl
attr title "SINR measured at feedback computation, DL"
attr unit dB
vector 337 SingleCell_Standalone.ue[2].cellularNic.nrChannelModel[0] measuredSinrUl:vector ETV
attr recordingmode vector
attr source measuredSinrUl
attr title "SINR measured at feedback computation, UL"
attr unit dB
vector 338 SingleCell_Standalone.ue[2].cellularNic.nrChannelModel[0] measuredSinrDl:vector ETV
attr recordingmode vector
attr source measuredSinrDl
attr title "SINR measured at feedback computation, DL"
attr unit dB
vector 339 SingleCell_Standalone.ue[2].cellularNic.nrChannelModel[1] measuredSinrUl:vector ETV
attr recordingmode vector
attr source measuredSinrUl
attr title "SINR measured at feedback computation, UL"
attr unit dB
vector 340 SingleCell_Standalone.ue[2].cellularNic.nrChannelModel[1] measuredSinrDl:vector ETV
attr recordingmode vector
attr source measuredSinrDl
attr title "SINR measured at feedback computation, DL"
attr unit dB
vector 341 SingleCell_Standalone.ue[3].cellularNic.nrChannelModel[0] measuredSinrUl:vector ETV
attr recordingmode vector
attr source measuredSinrUl
attr title "SINR measured at feedback computation, UL"
attr unit dB
vector 342 SingleCell_Standalone.ue[3].cellularNic.nrChannelModel[0] measuredSinrDl:vector ETV
attr recordingmode vector
attr source measuredSinrDl
attr title "SINR measured at feedback computation, DL"
attr unit dB
vector 343 SingleCell_Standalone.ue[3].cellularNic.nrChannelModel[1] measuredSinrUl:vector ETV
[...]
366	43137385 7269 1229155 1405128 8.75 9.998 209 32.997111443221 32.997111443221 6896.3962916332 227561.15699164
367	43144654 7269 1229157 1405130 8.75 9.998 209 28.091609927353 28.091609927353 5871.1464748168 164929.95659691
368	43151923 7269 1229157 1405130 8.75 9.998 209 26.380565426188 26.380565426188 5513.5381740733 145450.25453093
369	43159192 7269 1229159 1405132 8.75 9.998 209 27.943862460826 27.943862460826 5840.2672543126 163199.62488898
370	43166461 7269 1229159 1405132 8.75 9.998 209 22.867183470842 22.867183470842 4779.2413454059 109287.78869683
371	43173730 7269 1229161 1405134 8.75 9.998 209 1.9237607904574 1.9237607904574 402.06600520559 773.47881599035
372	43180999 7269 1229161 1405134 8.75 9.998 209 10.290370031345 10.290370031345 2150.687336551 22131.368514837
373	43188268 7269 1229163 1405136 8.75 9.998 209 39.584349717075 39.584349717075 8273.1290908688 327486.43518746
374	43195537 7269 1229163 1405136 8.75 9.998 209 42.183789284941 42.183789284941 8816.4119605528 371909.66439319
375	43202806 7269 1229165 1405138 8.75 9.998 209 26.294365787311 26.294365787311 5495.522449548 144501.27748079
376	43210075 7269 1229165 1405138 8.75 9.998 209 40.295756051656 40.295756051656 8421.8130147961 339363.32275689
377	43217344 7269 1229167 1405140 8.75 9.998 209 15.116357132297 15.116357132297 3159.31864065 47757.388866787
378	43224613 7269 1229167 1405140 8.75 9.998 209 33.591720598879 33.591720598879 7020.6696051658 235836.37179377
379	43231882 7269 1229169 1405142 8.75 9.998 209 11.578440611606 11.578440611606 2419.8940878256 28018.599982265
380	43239151 7269 1229169 1405142 8.75 9.998 209 33.225536712307 33.225536712307 6944.137172872 230722.68457255
381	43246420 7269 1229171 1405144 8.75 9.998 209 22.875746738655 22.875746738655 4781.031068379 109369.65586988
382	43253689 7269 1229171 1405144 8.75 9.998 209 21.010975364819 21.010975364819 4391.2938512471 92265.366928233
383	43260958 7269 1229173 1405146 8.75 9.998 209 21.503195290824 21.503195290824 4494.1678157821 96638.968212498
384	43268227 7269 1229173 1405146 8.75 9.998 209 7.8844699447891 7.8844699447891 1647.8542184609 12992.457058849
385	43275496 7269 1229175 1405148 8.75 9.998 209 25.536037428886 25.536037428886 5337.0318226372 136286.64438202
386	43282765 7269 1229175 1405148 8.75 9.998 209 21.560925070713 21.560925070713 4506.233339779 97158.559390124
387	43290034 7269 1229177 1405150 8.75 9.998 209 23.195849602406 23.195849602406 4847.9325669029 112451.91470449
388	43297303 7269 1229177 1405150 8.75 9.998 209 17.856119980613 17.856119980613 3731.9290759481 66637.773339269
389	43304572 10836 1228525 1404949 8.745 9.997 516 0 1 2 2
390	43315408 10878 1228525 1404949 8.745 9.997 518 0 1 2 2
391	43326286 10836 1228525 1404949 8.745 9.997 516 1 2 518 522
392	43337122 5271 1228527 1404720 8.745 9.995 251 0 0 0 0
393	43342393 5271 1228527 1404720 8.745 9.995 251 0 0 0 0
394	43347664 5271 1228527 1404720 8.745 9.995 251 1 1 251 251
395	43352935 7018 1228530 1404721 8.745 9.995 319 14 15 4721 69919
396	43359953 8670 1228530 1404721 8.745 9.995 255 472.1362520324 472.1362520324 120394.74426826 56842723.323217
397	43368623 8898 1228530 1404721 8.745 9.995 255 32.481237846435 42.404031815138 9061.3470440146 323320.58568707
398	43377521 7272 1228531 1404722 8.745 9.995 319 26 870 130553 97425441
399	43384793 5544 1228534 1404727 8.745 9.995 252 13 14 3278 42642
400	43390337 8750 1228534 1404727 8.745 9.995 250 175.07585534955 175.07585534955 43768.963837387 7662888.7815941
401	43399087 8750 1228534 1404727 8.745 9.995 250 29.062815281369 29.708566103801 7346.4226731463 215905.76650286
402	43407837 5796 1228535 1404728 8.745 9.995 252 141 615 130051 69639731
403	43413633 5292 1228497 1404797 8.745 9.996 252 1 1 252 252
404	43418925 5796 1228497 1404797 8.745 9.996 252 330 703 130158 75991734
405	43424721 5796 1228500 1404800 8.745 9.996 252 330 703 130158 75991734
406	43430517 5292 1228500 1404800 8.745 9.996 252 0 0 0 0
407	43435809 6300 1228500 1404800 8.745 9.996 252 0.004 0.004 1.008 0.004032
408	43442109 5292 1228500 1404800 8.745 9.996 252 0 0 0 0
409	43447401 5544 1228532 1404842 8.745 9.996 252 15 15 3780 56700
410	43452945 7525 1228532 1404842 8.745 9.996 215 412.53442774522 412.53442774522 88694.901965223 36589700.626142
411	43460470 7525 1228532 1404842 8.745 9.996 215 33.249362355066 34.674805391735 7249.6202928894 244478.3476892
412	43467995 5796 1228533 1404843 8.745 9.996 252 167 870 130662 84284234
413	43473791 2176 1231300 1403317 8.765 9.985 64 472.1362520324 472.1362520324 30216.720130074 14266408.990925
414	43475967 2240 1231300 1403317 8.765 9.985 64 31.147066087352 31.147066087352 1993.4122295905 62088.942454392
415	43478207 4388 1228567 1404790 8.746 9.996 126 113812.24988884 115573.19907049 14444671.586813 1655973758051.1
416	43482595 2646 1228567 1404790 8.746 9.996 126 0 0 0 0
417	43485241 2646 1228567 1404790 8.746 9.996 126 0 0 0 0
418	43487887 4284 1228567 1404790 8.746 9.996 126 0.007642830779 0.019642830779 1.170996678154 0.011451438255934
419	43492171 3024 1228567 1404790 8.746 9.996 126 1029 1029 129654 133413966
420	43495195 3024 1228568 1404791 8.746 9.996 126 1029 1029 129654 133413966
421	43498219 3024 1228568 1404791 8.746 9.996 126 1028 1028 129528 133154784
422	43501243 3024 1228571 1404794 8.746 9.996 126 1008 1008 127008 128024064
423	43504267 3024 1228572 1404795 8.746 9.996 126 1000 1000 126000 126000000
424	43507291 4284 1228572 1404795 8.746 9.996 126 0.007646400379 0.019646400379 1.171446447754 0.011459799840916
425	43511575 2898 1228572 1404795 8.746 9.996 126 869 994 117369 109495911
426	43514473 4399 1228577 1404800 8.746 9.996 126 114041.01823032 115838.88458559 14476834.934969 1663357794784.4
427	43518872 2646 1228577 1404800 8.746 9.996 126 0 0 0 0
428	43521518 2646 1228577 1404800 8.746 9.996 126 0 0 0 0
429	43524164 4284 1228577 1404800 8.746 9.996 126 0.005070190714 0.005070190714 0.638844029964 0.0032390610684178
430	43528448 3024 1228577 1404800 8.746 9.996 126 1029 1029 129654 133413966
431	43531472 3024 1228578 1404801 8.746 9.996 126 1029 1029 129654 133413966
432	43534496 3024 1228578 1404801 8.746 9.996 126 1028 1028 129528 133154784
433	43537520 3024 1228581 1404804 8.746 9.996 126 1008 1008 127008 128024064
434	43540544 3024 1228582 1404805 8.746 9.996 126 1000 1000 126000 126000000
435	43543568 4284 1228582 1404805 8.746 9.996 126 0.005073760314 0.005073760314 0.639293799564 0.0032436235092141
436	43547852 2898 1228582 1404805 8.746 9.996 126 871 996 117621 109965891
437	43550750 4872 1228586 1405057 8.746 9.998 232 1 1 232 232
438	43555622 5298 1228586 1405057 8.746 9.998 231 74 613 62840 21166722
439	43560920 5298 1228589 1405060 8.746 9.998 231 74 613 62840 21166722
440	43566218 4851 1228589 1405060 8.746 9.998 231 0 0 0 0
441	43571069 5774 1228589 1405060 8.746 9.998 231 0.004 0.01 0.93 0.00378
442	43576843 4851 1228589 1405060 8.746 9.998 231 0 0 0 0
443	43581694 5292 1228617 1404951 8.746 9.997 252 0 0 0 0
444	43586986 5292 1228617 1404951 8.746 9.997 252 0 0 0 0
445	43592278 5292 1228617 1404951 8.746 9.997 252 1 1 252 252
446	43597570 5610 1228618 1404956 8.746 9.997 255 15 15 3825 57375
447	43603180 8925 1228618 1404956 8.746 9.997 255 332.83013734618 332.83013734618 84871.685023277 28247854.583099
448	43612105 8843 1228618 1404956 8.746 9.997 255 34.231011762837 52.382797429138 10424.684368418 428684.0297938
449	43620948 5863 1228619 1404957 8.746 9.997 255 26 870 130674 85114790
450	43626811 7414 1228620 1404960 8.746 9.997 337 14 15 4885 70895
451	43634225 5845 1228620 1404960 8.746 9.997 167 440.90722216695 440.90722216695 73631.50610188 32464662.819348
452	43640070 5845 1228620 1404960 8.746 9.997 167 29.202475863525 35.183940092089 5437.9383353599 177757.75224856
453	43645915 7688 1228621 1404961 8.746 9.997 337 30 870 131002 87135170
454	43653603 6686 1228670 1405037 8.747 9.998 320 1 1 320 320
455	43660289 7192 1228670 1405037 8.747 9.998 317 24 868 130288 97576254
456	43667481 7192 1228673 1405040 8.747 9.998 317 24 868 130288 97576254
457	43674673 6623 1228673 1405040 8.747 9.998 317 0 0 0 0
458	43681296 7888 1228673 1405040 8.747 9.998 317 0.004 0.01 1.286 0.005324
459	43689184 6623 1228673 1405040 8.747 9.998 317 0 0 0 0
460	43695807 5312 1228691 1405066 8.747 9.998 253 1 1 253 253
461	43701119 5818 1228691 1405066 8.747 9.998 253 139 613 130160 69496304
462	43706937 5818 1228694 1405069 8.747 9.998 253 139 613 130160 69496304
463	43712755 5312 1228694 1405069 8.747 9.998 253 0 0 0 0
464	43718067 6324 1228694 1405069 8.747 9.998 253 0.004 0.004 1.012 0.004048
465	43724391 5312 1228694 1405069 8.747 9.998 253 0 0 0 0
466	43729703 4851 1228714 1405258 8.747 9.999 231 0 1 1 1
467	43734554 4872 1228714 1405258 8.747 9.999 232 0 1 1 1
468	43739426 4851 1228714 1405258 8.747 9.999 231 1 2 232 234
469	43744277 5950 1231543 1403696 8.767 9.988 170 440.90722216695 440.90722216695 74954.227768381 33047860.355025
470	43750227 5950 1231543 1403696 8.767 9.988 170 29.564628690515 36.236794389989 5782.7938792547 197475.8055382
471	43756177 5610 1228721 1405158 8.747 9.998 255 14 14 3570 49980
472	43761787 8925 1228721 1405158 8.747 9.998 255 492.34239995506 492.34239995506 125547.31198854 61812264.892344
473	43770712 8820 1228721 1405158 8.747 9.998 252 26.553632626545 28.202202739206 6918.1228252125 190008.90732415
474	43779532 5865 1228722 1405159 8.747 9.998 255 332 705 132313 75342011
475	43785397 4396 1228860 1405069 8.748 9.998 126 114244.3876417 116074.59989675 14504354.954055 1669688871693.6
476	43789793 2646 1228860 1405069 8.748 9.998 126 0 0 0 0
477	43792439 2646 1228860 1405069 8.748 9.998 126 0 0 0 0
478	43795085 4284 1228860 1405069 8.748 9.998 126 0.005653734098 0.008653734098 0.715370496348 0.0040704757701999
479	43799369 3024 1228860 1405069 8.748 9.998 126 1029 1029 129654 133413966
480	43802393 3024 1228861 1405070 8.748 9.998 126 1029 1029 129654 133413966
481	43805417 3024 1228861 1405070 8.748 9.998 126 1028 1028 129528 133154784
482	43808441 3024 1228864 1405073 8.748 9.998 126 1008 1008 127008 128024064
483	43811465 3024 1228865 1405074 8.748 9.998 126 1000 1000 126000 126000000
484	43814489 4284 1228865 1405074 8.748 9.998 126 0.005657303698 0.008657303698 0.715820265948 0.004075584548745
485	43818773 2898 1228865 1405074 8.748 9.998 126 873 998 117873 110436879
486	43821671 5260 1228874 1405238 8.748 9.999 252 1 1 252 252
487	43826931 5764 1228874 1405238 8.748 9.999 252 165 868 130158 83762594
488	43832695 5764 1228877 1405241 8.748 9.999 252 165 868 130158 83762594
489	43838459 5260 1228877 1405241 8.748 9.999 252 0 0 0 0
490	43843719 6268 1228877 1405241 8.748 9.999 252 0.004 0.004 1.008 0.004032
491	43849987 5260 1228877 1405241 8.748 9.999 252 0 0 0 0
492	43855247 6623 1228886 1405256 8.748 9.999 317 0 1 3 3
493	43861870 6686 1228886 1405256 8.748 9.999 320 0 1 3 3
494	43868556 6623 1228886 1405256 8.748 9.999 317 1 2 320 326
495	43875179 5313 1228888 1405260 8.748 9.999 253 0 0 0 0
496	43880492 5313 1228888 1405260 8.748 9.999 253 0 0 0 0
497	43885805 5313 1228888 1405260 8.748 9.999 253 1 1 253 253
498	43891118 4368 1229104 1405241 8.75 9.999 126 114003.00033337 115779.09677419 14471226.564454 1662069037067.4
499	43895486 2614 1229104 1405241 8.75 9.999 126 0 0 0 0
500	43898100 2614 1229104 1405241 8.75 9.999 126 0 0 0 0
501	43900714 4252 1229104 1405241 8.75 9.999 126 0.005905070023 0.006905070023 0.774038822898 0.0047779055504232
502	43904966 2992 1229104 1405241 8.75 9.999 126 1029 1029 129654 133413966
503	43907958 2992 1229105 1405242 8.75 9.999 126 1029 1029 129654 133413966
504	43910950 2992 1229105 1405242 8.75 9.999 126 1028 1028 129528 133154784
505	43913942 2992 1229108 1405245 8.75 9.999 126 1008 1008 127008 128024064
506	43916934 2992 1229109 1405246 8.75 9.999 126 1000 1000 126000 126000000
507	43919926 4252 1229109 1405246 8.75 9.999 126 0.005908639623 0.006908639623 0.774488592498 0.0047834331738852
508	43924178 2866 1229109 1405246 8.75 9.999 126 871 996 117621 109965891
509	43927044 4345 1228834 1405040 8.748 9.998 126 113900.87885193 115676.17449664 14456295.70503 1658640619925.5
510	43931389 2612 1228834 1405040 8.748 9.998 126 0 0 0 0
511	43934001 2612 1228834 1405040 8.748 9.998 126 0 0 0 0
512	43936613 4124 1228834 1405040 8.748 9.998 126 0.00553569143 0.01153569143 0.81149712018 0.0053892664766701
513	43940737 2990 1228834 1405040 8.748 9.998 126 1029 1029 129654 133413966
514	43943727 2990 1228835 1405041 8.748 9.998 126 1029 1029 129654 133413966
515	43946717 2990 1228835 1405041 8.748 9.998 126 1028 1028 129528 133154784
516	43949707 2990 1228838 1405044 8.748 9.998 126 1008 1008 127008 128024064
517	43952697 2990 1228839 1405045 8.748 9.998 126 1000 1000 126000 126000000
518	43955687 4124 1228839 1405045 8.748 9.998 126 0.00553926103 0.01153926103 0.81194688978 0.0053950615224081
519	43959811 2864 1228839 1405045 8.748 9.998 126 870 995 117495 109730775
520	43962675 2885 1229093 1405351 8.75 10 126 1000 1000 126000 126000000
521	43965560 2792 1229038 1399526 8.75 9.959 135 3 6 582 2682
522	43968352 2792 1229038 1399526 8.75 9.959 135 0 1 13 13
523	43971144 2354 1228889 1402287 8.748 9.978 107 13 13 1391 18083
524	43973498 3745 1228889 1402287 8.748 9.978 107 370.70643747381 370.70643747381 39665.588809698 14704289.117944
525	43977243 3745 1228889 1402287 8.748 9.978 107 21.009614579869 24.908968002271 2464.2803178331 57036.737362646
526	43980988 2461 1228890 1402288 8.748 9.978 107 123 615 32595 12209103
527	43983449 2442 1231001 1402720 8.763 9.981 74 551.356860114 551.356860114 40800.407648436 22495584.652413
528	43985891 2590 1231001 1402720 8.763 9.981 74 17.863344844155 22.450559013298 1561.6386213686 33111.558862581
529	43988481 3185 1230696 1404116 8.761 9.991 91 469.40062945439 469.40062945439 42715.45728035 20050662.534828
530	43991666 3180 1230696 1404116 8.761 9.991 91 19.148408320432 24.479535423559 2134.1302162322 50292.529987465
531	43994846 4550 1228536 1401935 8.745 9.975 130 434.97873717162 434.97873717162 56547.235832311 24596845.232884
532	43999396 4270 1228536 1401935 8.745 9.975 122 7.9555675879391 14.704002822968 1579.6806490251 20898.504385144
533	44003666 2246 1229293 1402697 8.751 9.981 107 1 1 107 107
534	44005912 2414 1229293 1402697 8.751 9.981 105 121 613 31401 11568693
535	44008326 2414 1229296 1402700 8.751 9.981 105 121 613 31401 11568693
536	44010740 2204 1229296 1402700 8.751 9.981 105 0 0 0 0
537	44012944 2622 1229296 1402700 8.751 9.981 105 0.004 0.01 0.432 0.001848
538	44015566 2204 1229296 1402700 8.751 9.981 105 0 0 0 0
539	44017770 2226 1228529 1402797 8.745 9.982 106 0 1 2 2
540	44019996 2268 1228529 1402797 8.745 9.982 108 0 1 2 2
541	44022264 2226 1228529 1402797 8.745 9.982 106 1 2 108 112
542	44024490 2069 1229185 1405378 8.75 10 63 181.4409264209 181.4409264209 11430.778364517 2074011.0161699
543	44026559 2132 1229185 1405378 8.75 10 63 38.357604788173 38.357604788173 2416.5291016549 92692.268240399
544	44028691 2087 1232804 1404082 8.776 9.991 60 52820.282267243 53618.092354277 3188701.4503447 169467006643.36
545	44030778 1260 1232804 1404082 8.776 9.991 60 0 0 0 0
546	44032038 1260 1232804 1404082 8.776 9.991 60 0 0 0 0
547	44033298 2040 1232804 1404082 8.776 9.991 60 4.725975607061 5.350975607061 302.99853642366 1532.4474339147
548	44035338 1440 1232804 1404082 8.776 9.991 60 1029 1029 61740 63530460
549	44036778 1440 1232805 1404083 8.776 9.991 60 1029 1029 61740 63530460
550	44038218 1440 1232805 1404083 8.776 9.991 60 1028 1028 61680 63407040
551	44039658 1440 1232808 1404086 8.776 9.991 60 1008 1008 60480 60963840
552	44041098 1440 1232809 1404087 8.776 9.991 60 1000 1000 60000 60000000
553	44042538 2040 1232809 1404087 8.776 9.991 60 4.725979176661 5.350979176661 302.99875059966 1532.4495970826
554	44044578 1380 1232809 1404087 8.776 9.991 60 403 462 25950 11241370
555	44045958 1081 1229296 1402700 8.751 9.981 31 28872.95401403 29547.643574556 909681.02855102 26694982715.234
556	44047039 650 1229296 1402700 8.751 9.981 31 0 0 0 0
557	44047689 650 1229296 1402700 8.751 9.981 31 0 0 0 0
558	44048339 1053 1229296 1402700 8.751 9.981 31 6.497289309795 7.427289309795 214.16696860364 1481.7462966089
559	44049392 743 1229296 1402700 8.751 9.981 31 1029 1029 31899 32824071
560	44050135 743 1229297 1402701 8.751 9.981 31 1029 1029 31899 32824071
561	44050878 743 1229297 1402701 8.751 9.981 31 1028 1028 31868 32760304
562	44051621 743 1229300 1402704 8.751 9.981 31 1008 1008 31248 31497984
563	44052364 743 1229301 1402705 8.751 9.981 31 1000 1000 31000 31000000
564	44053107 1053 1229301 1402705 8.751 9.981 31 6.497292879395 7.427292879395 214.16707926124 1481.7478255901
565	44054160 712 1229301 1402705 8.751 9.981 31 221 251 7316 1729056
566	44054872 1295 1232846 1403467 8.776 9.986 37 412.53442774522 412.53442774522 15263.773826573 6296832.2007779
567	44056167 1295 1232846 1403467 8.776 9.986 37 30.584734219111 33.783175677976 1204.6416806953 39308.56492693
568	44057462 816 1236083 1405272 8.7990433593 9.9990433593 19 12128424.578262 12534726.729185 234439908.80061 2.8932375824557e+15
569	44058278 816 1236083 1405272 8.7990433593 9.9990433593 19 12128424.578262 12534726.729185 234439908.80061 2.8932375824557e+15
570	44059094 816 1236087 1405276 8.7990442373 9.9990442373 19 12128424.578262 12534726.729185 234439908.80061 2.8932375824557e+15
571	44059910 816 1236087 1405276 8.7990442373 9.9990442373 19 12128424.578262 12534726.729185 234439908.80061 2.8932375824557e+15
572	44060726 809 1236094 1405283 8.7990451153 9.9990451153 19 12553155.400069 12973686.030986 242649866.69635 3.0994249479059e+15
573	44061535 809 1236094 1405283 8.7990451153 9.9990451153 19 12553155.400069 12973686.030986 242649866.69635 3.0994249479059e+15
574	44062344 809 1236098 1405287 8.7990460221 9.9990460221 19 12553155.400069 12973686.030986 242649866.69635 3.0994249479059e+15
575	44063153 809 1236098 1405287 8.7990460221 9.9990460221 19 12553155.400069 12973686.030986 242649866.69635 3.0994249479059e+15
576	44063962 1802 1229322 1405156 8.751 9.998 53 286.2775270483 286.2775270483 15172.70893356 4343605.5921232
577	44065764 1855 1229322 1405156 8.751 9.998 53 19.634168324349 29.200968731013 1258.1423134294 29996.439753574
578	44067619 63 1242824 1400927 8.847 9.968 3 0 0 0 0
581	44067682 63 1276391 1341282 9.085 9.545 3 0 0 0 0
582	44067745 168 1235226 1338146 8.793 9.523 8 0 0 0 0
583	44067913 21 1324063 1324063 9.423 9.423 1 0 0 0 0
584	44067934 42 1273979 1353364 9.068 9.631 2 0 0 0 0
585	44067976 70 1273798 1273980 9.067 9.068 2 175.07585534955 175.07585534955 350.1517106991 61303.110252752
586	44068046 70 1273798 1273980 9.067 9.068 2 24.938415432528 36.100092301152 61.03850773368 1925.1412284371
589	44068116 62 1317652 1381359 9.378 9.83 3 2 3 8 22
590	44068178 62 1317652 1381359 9.378 9.83 3 0 1 1 1
591	44068240 42 1351556 1355798 9.618 9.648 2 0 0 0 0
592	44068282 23 1405380 1405380 10 10 1 100000 100000 100000 10000000000
593	44068305 23 1405380 1405380 10 10 1 100000 100000 100000 10000000000
594	44068328 23 1405380 1405380 10 10 1 100000 100000 100000 10000000000
595	44068351 23 1405380 1405380 10 10 1 100000 100000 100000 10000000000
596	44068374 23 1405380 1405380 10 10 1 100000 100000 100000 10000000000
597	44068397 23 1405380 1405380 10 10 1 100000 100000 100000 10000000000
598	44068420 23 1405380 1405380 10 10 1 100000 100000 100000 10000000000
599	44068443 23 1405380 1405380 10 10 1 100000 100000 100000 10000000000
600	44068466 23 1405380 1405380 10 10 1 100000 100000 100000 10000000000
601	44068489 23 1405380 1405380 10 10 1 100000 100000 100000 10000000000
602	44068512 23 1405380 1405380 10 10 1 100000 100000 100000 10000000000
603	44068535 23 1405380 1405380 10 10 1 100000 100000 100000 10000000000
604	44068558 23 1405380 1405380 10 10 1 100000 100000 100000 10000000000
605	44068581 23 1405380 1405380 10 10 1 100000 100000 100000 10000000000
606	44068604 23 1405380 1405380 10 10 1 100000 100000 100000 10000000000

