version 3
run CarrierAggregation-3-20240612-12:45:22-33184
attr configname CarrierAggregation
attr datetime 20240612-12:45:22
attr datetimef 20240612-124522
attr experiment CarrierAggregation
attr inifile omnetpp.ini
attr iterationvars $numUes=15
attr iterationvarsd numUes=15
attr iterationvarsf numUes=15-
attr measurement $numUes=15
attr network simu5g.simulations.NR.networks.SingleCell_Standalone
attr processid 33184
attr repetition 0
attr replication #0
attr resultdir results
attr runnumber 3
attr seedset 0
itervar numUes 15
config image-path ../../../images;../../../../INET4.5/images
config extends Multiple-UEs
config *.carrierAggregation.numComponentCarriers 2
config *.carrierAggregation.componentCarrier[0].carrierFrequency 2GHz
config *.carrierAggregation.componentCarrier[0].numBands 6
config *.carrierAggregation.componentCarrier[1].carrierFrequency 6GHz
config *.carrierAggregation.componentCarrier[1].numBands 6
config *.gnb.cellularNic.numCarriers 2
config *.gnb.cellularNic.channelModel[0].componentCarrierIndex 0
config *.gnb.cellularNic.channelModel[1].componentCarrierIndex 1
config *.ue[*].cellularNic.numNRCarriers 2
config *.ue[*].cellularNic.nrChannelModel[0].componentCarrierIndex 0
config *.ue[*].cellularNic.nrChannelModel[1].componentCarrierIndex 1
config *.numBgCells 2
config *.bgCell[0].bgScheduler.carrierFrequency 2GHz
config *.bgCell[0].bgScheduler.numBands 6
config *.bgCell[1].bgScheduler.carrierFrequency 6GHz
config *.bgCell[1].bgScheduler.numBands 6
config *.bgCell[*].bgScheduler.txPower 23
config extends BgTraffic
config *.numUe 15
config *.ue[*].mobility.initialX uniform(0m,1000m)
config *.ue[*].mobility.initialY uniform(0m,1000m)
config *.server.numApps 15
config output-scalar-file results/CarrierAggregation/$numUes=15-0.sca
config output-vector-file results/CarrierAggregation/$numUes=15-0.vec
config extends Single-UE
config *.numBgCells 1
config *.bgCell[*].bgScheduler.isNr true
config *.bgCell[*].bgScheduler.txPower 23
config *.bgCell[*].mobility.initialX 750m
config *.bgCell[*].mobility.initialY 1000m
config *.bgCell[*].bgTrafficGenerator.numBgUes 10
config *.bgCell[*].bgTrafficGenerator.bgUE[*].mobility.initialX uniform(500m,1000m)
config *.bgCell[*].bgTrafficGenerator.bgUE[*].mobility.initialY uniform(500m,1000m)
config *.bgCell[*].bgTrafficGenerator.bgUE[*].trafficGeneratorType "\"TrafficGeneratorCbr\""
config *.bgCell[*].bgTrafficGenerator.bgUE[*].generator.startTimeDl uniform(0s,0.05s)
config *.bgCell[*].bgTrafficGenerator.bgUE[*].generator.packetSizeDl 1000B
config *.bgCell[*].bgTrafficGenerator.bgUE[*].generator.periodDl 0.01s
config *.gnb.mobility.initialX 500m
config *.gnb.mobility.initialY 500m
config *.numUe 1
config *.ue[*].mobility.initialX 500m
config *.ue[*].mobility.initialY 900m
config *.ue[*].macCellId 0
config *.ue[*].masterId 0
config *.ue[*].nrMacCellId 1
config *.ue[*].nrMasterId 1
config *.ue[*].numApps 1
config *.server.numApps 1
config *.ue[*].app[*].typename CbrReceiver
config *.ue[*].app[*].localPort 1000
config *.server.app[*].typename CbrSender
config *.server.app[*].PacketSize 1000
config *.server.app[*].sampling_time 0.01s
config *.server.app[*].destAddress "\"ue[\"+string(ancestorIndex(0))+\"]\""
config *.server.app[*].destPort 1000
config *.server.app[*].localPort 3088+ancestorIndex(0)
config *.server.app[*].startTime uniform(0.01s,0.05s)
config output-scalar-file-append false
config network simu5g.simulations.NR.networks.SingleCell_Standalone
config sim-time-limit 10s
config warmup-period 1s
config seed-set 0
config output-scalar-file results/CarrierAggregation/0.sca
config output-vector-file results/CarrierAggregation/0.vec
config **.routingRecorder.enabled false
config **.amcType "\"NRAmc\""
config **.targetBler 0.01
config **.blerShift 5
config *.configurator.config "xmldoc(\"./demo.xml\")"
config **.mobility.constraintAreaMaxX 1000m
config **.mobility.constraintAreaMaxY 1000m
config **.mobility.constraintAreaMinX 0m
config **.mobility.constraintAreaMinY 0m
config **.mobility.constraintAreaMinZ 0m
config **.mobility.constraintAreaMaxZ 0m
config **.mobility.initFromDisplayString false

par SingleCell_Standalone.server.pppg$o[0].channel typename "\"inet.node.ethernet.Eth10G\""
par SingleCell_Standalone.server.pppg$o[0].channel disabled false
attr mutable ""
par SingleCell_Standalone.server.pppg$o[0].channel delay 5e-08s
attr mutable ""
attr unit s
par SingleCell_Standalone.server.pppg$o[0].channel datarate 1e+10bps
attr mutable ""
attr unit bps
par SingleCell_Standalone.server.pppg$o[0].channel ber 0
attr mutable ""
par SingleCell_Standalone.server.pppg$o[0].channel per 0
attr mutable ""
par SingleCell_Standalone.server.pppg$o[0].channel length 10m
attr unit m
par SingleCell_Standalone.router.pppg$o[0].channel typename "\"inet.node.ethernet.Eth10G\""
par SingleCell_Standalone.router.pppg$o[0].channel disabled false
attr mutable ""
par SingleCell_Standalone.router.pppg$o[0].channel delay 5e-08s
attr mutable ""
attr unit s
par SingleCell_Standalone.router.pppg$o[0].channel datarate 1e+10bps
attr mutable ""
attr unit bps
par SingleCell_Standalone.router.pppg$o[0].channel ber 0
attr mutable ""
par SingleCell_Standalone.router.pppg$o[0].channel per 0
attr mutable ""
par SingleCell_Standalone.router.pppg$o[0].channel length 10m
attr unit m
par SingleCell_Standalone.router.pppg$o[1].channel typename "\"inet.node.ethernet.Eth10G\""
par SingleCell_Standalone.router.pppg$o[1].channel disabled false
attr mutable ""
par SingleCell_Standalone.router.pppg$o[1].channel delay 5e-08s
attr mutable ""
attr unit s
par SingleCell_Standalone.router.pppg$o[1].channel datarate 1e+10bps
attr mutable ""
attr unit bps
par SingleCell_Standalone.router.pppg$o[1].channel ber 0
attr mutable ""
par SingleCell_Standalone.router.pppg$o[1].channel per 0
attr mutable ""
par SingleCell_Standalone.router.pppg$o[1].channel length 10m
attr unit m
par SingleCell_Standalone.upf.filterGate$o.channel typename "\"inet.node.ethernet.Eth10G\""
par SingleCell_Standalone.upf.filterGate$o.channel disabled false
attr mutable ""
par SingleCell_Standalone.upf.filterGate$o.channel delay 5e-08s
attr mutable ""
attr unit s
par SingleCell_Standalone.upf.filterGate$o.channel datarate 1e+10bps
attr mutable ""
attr unit bps
par SingleCell_Standalone.upf.filterGate$o.channel ber 0
attr mutable ""
par SingleCell_Standalone.upf.filterGate$o.channel per 0
attr mutable ""
par SingleCell_Standalone.upf.filterGate$o.channel length 10m
attr unit m
par SingleCell_Standalone.upf.pppg$o[0].channel typename "\"inet.node.ethernet.Eth10G\""
par SingleCell_Standalone.upf.pppg$o[0].channel disabled false
attr mutable ""
par SingleCell_Standalone.upf.pppg$o[0].channel delay 5e-08s
attr mutable ""
attr unit s
par SingleCell_Standalone.upf.pppg$o[0].channel datarate 1e+10bps
attr mutable ""
attr unit bps
par SingleCell_Standalone.upf.pppg$o[0].channel ber 0
attr mutable ""
par SingleCell_Standalone.upf.pppg$o[0].channel per 0
attr mutable ""
par SingleCell_Standalone.upf.pppg$o[0].channel length 10m
attr unit m
par SingleCell_Standalone.iUpf.pppg$o[0].channel typename "\"inet.node.ethernet.Eth10G\""
par SingleCell_Standalone.iUpf.pppg$o[0].channel disabled false
attr mutable ""
par SingleCell_Standalone.iUpf.pppg$o[0].channel delay 5e-08s
attr mutable ""
attr unit s
par SingleCell_Standalone.iUpf.pppg$o[0].channel datarate 1e+10bps
attr mutable ""
attr unit bps
par SingleCell_Standalone.iUpf.pppg$o[0].channel ber 0
attr mutable ""
par SingleCell_Standalone.iUpf.pppg$o[0].channel per 0
attr mutable ""
par SingleCell_Standalone.iUpf.pppg$o[0].channel length 10m
attr unit m
par SingleCell_Standalone.iUpf.pppg$o[1].channel typename "\"inet.node.ethernet.Eth10G\""
par SingleCell_Standalone.iUpf.pppg$o[1].channel disabled false
attr mutable ""
par SingleCell_Standalone.iUpf.pppg$o[1].channel delay 5e-08s
attr mutable ""
attr unit s
par SingleCell_Standalone.iUpf.pppg$o[1].channel datarate 1e+10bps
attr mutable ""
attr unit bps
par SingleCell_Standalone.iUpf.pppg$o[1].channel ber 0
attr mutable ""
par SingleCell_Standalone.iUpf.pppg$o[1].channel per 0
attr mutable ""
par SingleCell_Standalone.iUpf.pppg$o[1].channel length 10m
attr unit m
par SingleCell_Standalone.gnb.ppp$o.channel typename "\"inet.node.ethernet.Eth10G\""
par SingleCell_Standalone.gnb.ppp$o.channel disabled false
attr mutable ""
par SingleCell_Standalone.gnb.ppp$o.channel delay 5e-08s
attr mutable ""
attr unit s
par SingleCell_Standalone.gnb.ppp$o.channel datarate 1e+10bps
attr mutable ""
attr unit bps
par SingleCell_Standalone.gnb.ppp$o.channel ber 0
attr mutable ""
par SingleCell_Standalone.gnb.ppp$o.channel per 0
attr mutable ""
par SingleCell_Standalone.gnb.ppp$o.channel length 10m
attr unit m
par SingleCell_Standalone.channelControl typename "\"simu5g.world.radio.LteChannelControl\""
par SingleCell_Standalone.channelControl coreDebug false
par SingleCell_Standalone.channelControl pMax 20mW
attr unit mW
par SingleCell_Standalone.channelControl sat -110dBm
attr unit dBm
par SingleCell_Standalone.channelControl alpha 2
par SingleCell_Standalone.channelControl carrierFrequency 2.4e+09Hz
attr unit Hz
par SingleCell_Standalone.channelControl numChannels 1
par SingleCell_Standalone.channelControl propagationModel "\"FreeSpaceModel\""
attr enum FreeSpaceModel,TwoRayGroundModel,RiceModel,RayleighModel,NakagamiModel,LogNormalShadowingModel
par SingleCell_Standalone.routingRecorder typename "\"inet.networklayer.ipv4.RoutingTableRecorder\""
par SingleCell_Standalone.routingRecorder enabled false
par SingleCell_Standalone.configurator typename "\"inet.networklayer.configurator.ipv4.Ipv4NetworkConfigurator\""
par SingleCell_Standalone.configurator minLinkWeight 0.001
par SingleCell_Standalone.configurator configureIsolatedNetworksSeparatly false
par SingleCell_Standalone.configurator config "<config>...</config> at C:/simu5g/simulations/NR/tutorial/\\./demo.xml:1"
par SingleCell_Standalone.configurator assignAddresses true
par SingleCell_Standalone.configurator assignUniqueAddresses true
par SingleCell_Standalone.configurator assignDisjunctSubnetAddresses true
par SingleCell_Standalone.configurator addStaticRoutes true
par SingleCell_Standalone.configurator addDefaultRoutes true
par SingleCell_Standalone.configurator addSubnetRoutes true
par SingleCell_Standalone.configurator addDirectRoutes true
par SingleCell_Standalone.configurator optimizeRoutes true
par SingleCell_Standalone.configurator dumpTopology false
par SingleCell_Standalone.configurator dumpLinks false
par SingleCell_Standalone.configurator dumpAddresses false
par SingleCell_Standalone.configurator dumpRoutes false
par SingleCell_Standalone.configurator dumpConfig "\"\""
par SingleCell_Standalone.binder typename "\"simu5g.common.binder.Binder\""
par SingleCell_Standalone.binder blerShift 5
par SingleCell_Standalone.binder maxDataRatePerRb 1.16Mbps
attr unit Mbps
par SingleCell_Standalone.binder printTrafficGeneratorConfig false
par SingleCell_Standalone.carrierAggregation.componentCarrier[0] typename "\"simu5g.common.carrierAggregation.ComponentCarrier\""
par SingleCell_Standalone.carrierAggregation.componentCarrier[0] carrierFrequency 2GHz
attr unit GHz
par SingleCell_Standalone.carrierAggregation.componentCarrier[0] numBands 6
par SingleCell_Standalone.carrierAggregation.componentCarrier[0] numerologyIndex 0
par SingleCell_Standalone.carrierAggregation.componentCarrier[0] useTdd false
par SingleCell_Standalone.carrierAggregation.componentCarrier[0] tddNumSymbolsDl 7
par SingleCell_Standalone.carrierAggregation.componentCarrier[0] tddNumSymbolsUl 7
par SingleCell_Standalone.carrierAggregation.componentCarrier[1] typename "\"simu5g.common.carrierAggregation.ComponentCarrier\""
par SingleCell_Standalone.carrierAggregation.componentCarrier[1] carrierFrequency 6GHz
attr unit GHz
par SingleCell_Standalone.carrierAggregation.componentCarrier[1] numBands 6
par SingleCell_Standalone.carrierAggregation.componentCarrier[1] numerologyIndex 0
par SingleCell_Standalone.carrierAggregation.componentCarrier[1] useTdd false
par SingleCell_Standalone.carrierAggregation.componentCarrier[1] tddNumSymbolsDl 7
par SingleCell_Standalone.carrierAggregation.componentCarrier[1] tddNumSymbolsUl 7
par SingleCell_Standalone.carrierAggregation typename "\"simu5g.common.carrierAggregation.CarrierAggregation\""
par SingleCell_Standalone.carrierAggregation numComponentCarriers 2
par SingleCell_Standalone.server.pppg$i[0].channel typename "\"ned.IdealChannel\""
par SingleCell_Standalone.server.ppp[0].phys$o.channel typename "\"ned.IdealChannel\""
par SingleCell_Standalone.server.interfaceTable typename "\"inet.networklayer.common.InterfaceTable\""
par SingleCell_Standalone.server.interfaceTable displayAddresses false
par SingleCell_Standalone.server.cb typename "\"inet.common.MessageDispatcher\""
par SingleCell_Standalone.server.cb displayStringTextFormat "\"processed %p pk (%l)\""
par SingleCell_Standalone.server.cb forwardServiceRegistration true
par SingleCell_Standalone.server.cb forwardProtocolRegistration true
par SingleCell_Standalone.server.bl typename "\"inet.common.MessageDispatcher\""
par SingleCell_Standalone.server.bl displayStringTextFormat "\"processed %p pk (%l)\""
par SingleCell_Standalone.server.bl forwardServiceRegistration true
par SingleCell_Standalone.server.bl forwardProtocolRegistration true
par SingleCell_Standalone.server.li typename "\"inet.common.MessageDispatcher\""
par SingleCell_Standalone.server.li displayStringTextFormat "\"processed %p pk (%l)\""
par SingleCell_Standalone.server.li forwardServiceRegistration true
par SingleCell_Standalone.server.li forwardProtocolRegistration true
par SingleCell_Standalone.server.lo[0].upperLayerIn.channel typename "\"ned.IdealChannel\""
par SingleCell_Standalone.server.lo[0].lo.upperLayerOut.channel typename "\"ned.IdealChannel\""
par SingleCell_Standalone.server.lo[0].lo typename "\"inet.linklayer.loopback.Loopback\""
par SingleCell_Standalone.server.lo[0].lo interfaceTableModule "\"SingleCell_Standalone.server.interfaceTable\""
par SingleCell_Standalone.server.lo[0].lo mtu 4470B
attr unit B
scalar SingleCell_Standalone.server.lo[0].lo rcvdPkFromHl:count 0
attr interpolationmode none
attr recordingmode count
attr source packetReceivedFromUpper
attr title "packets received from higher layer, count"
scalar SingleCell_Standalone.server.lo[0].lo rcvdPkFromHl:sum(packetBytes) 0
attr interpolationmode none
attr recordingmode sum(packetBytes)
attr source packetReceivedFromUpper
attr title "packets received from higher layer, sum(packetBytes)"
scalar SingleCell_Standalone.server.lo[0].lo passedUpPk:count 0
attr interpolationmode none
attr recordingmode count
attr source packetSentToUpper
attr title "packets passed to higher layer, count"
scalar SingleCell_Standalone.server.lo[0].lo passedUpPk:sum(packetBytes) 0
attr interpolationmode none
attr recordingmode sum(packetBytes)
attr source packetSentToUpper
attr title "packets passed to higher layer, sum(packetBytes)"
par SingleCell_Standalone.server.lo[0] typename "\"inet.linklayer.loopback.LoopbackInterface\""
par SingleCell_Standalone.server.lo[0] displayStringTextFormat "\"%a (%i)\\n%m\""
par SingleCell_Standalone.server.lo[0] recordPcap false
par SingleCell_Standalone.server.lo[0] numPcapRecorders 0
par SingleCell_Standalone.server.lo[0] interfaceTableModule "\"SingleCell_Standalone.server.interfaceTable\""
scalar SingleCell_Standalone.server.lo[0] packetDropInterfaceDown:count 0
attr interpolationmode none
attr recordingmode count
attr source packetDropReasonIsInterfaceDown(packetDropped)
attr title "packet drops: interface down, count"
scalar SingleCell_Standalone.server.lo[0] packetDropInterfaceDown:sum(packetBytes) 0
attr interpolationmode none
attr recordingmode sum(packetBytes)
attr source packetDropReasonIsInterfaceDown(packetDropped)
attr title "packet drops: interface down, sum(packetBytes)"
scalar SingleCell_Standalone.server.lo[0] packetDropNoCarrier:count 0
attr interpolationmode none
attr recordingmode count
attr source packetDropReasonIsNoCarrier(packetDropped)
attr title "packet drops: no carrier, count"
scalar SingleCell_Standalone.server.lo[0] packetDropNoCarrier:sum(packetBytes) 0
attr interpolationmode none
attr recordingmode sum(packetBytes)
attr source packetDropReasonIsNoCarrier(packetDropped)
attr title "packet drops: no carrier, sum(packetBytes)"
par SingleCell_Standalone.server.ppp[0].phys$i.channel typename "\"ned.IdealChannel\""
par SingleCell_Standalone.server.ppp[0].ppp.phys$o.channel typename "\"ned.IdealChannel\""
par SingleCell_Standalone.server.ppp[0].ppp.upperLayerOut.channel typename "\"ned.IdealChannel\""
par SingleCell_Standalone.server.ppp[0].upperLayerIn.channel typename "\"ned.IdealChannel\""
par SingleCell_Standalone.server.ppp[0].queue typename "\"inet.queueing.queue.DropTailQueue\""
par SingleCell_Standalone.server.ppp[0].queue displayStringTextFormat "\"contains %p pk (%l) pushed %u\\npulled %o removed %r dropped %d\""
par SingleCell_Standalone.server.ppp[0].queue packetCapacity 10000
par SingleCell_Standalone.server.ppp[0].queue dataCapacity -1b
attr unit b
par SingleCell_Standalone.server.ppp[0].queue dropperClass "\"inet::queueing::PacketAtCollectionEndDropper\""
par SingleCell_Standalone.server.ppp[0].queue comparatorClass "\"\""
par SingleCell_Standalone.server.ppp[0].queue bufferModule "\"\""
scalar SingleCell_Standalone.server.ppp[0].queue queueLength:last 0
attr autoWarmupFilter false
attr interpolationmode sample-hold
attr recordingmode last
attr source "warmup(atomic(constant0(packetPushEnded) + count(packetPushStarted) - count(packetPulled) - count(packetRemoved) - count(packetDropped)))"
attr title "queue length, last"
attr unit pk
scalar SingleCell_Standalone.server.ppp[0].queue queueLength:max 0
attr autoWarmupFilter false
attr interpolationmode sample-hold
attr recordingmode max
attr source "warmup(atomic(constant0(packetPushEnded) + count(packetPushStarted) - count(packetPulled) - count(packetRemoved) - count(packetDropped)))"
attr title "queue length, max"
attr unit pk
scalar SingleCell_Standalone.server.ppp[0].queue queueLength:timeavg 0
attr autoWarmupFilter false
attr interpolationmode sample-hold
attr recordingmode timeavg
attr source "warmup(atomic(constant0(packetPushEnded) + count(packetPushStarted) - count(packetPulled) - count(packetRemoved) - count(packetDropped)))"
attr title "queue length, timeavg"
attr unit pk
scalar SingleCell_Standalone.server.ppp[0].queue queueBitLength:last 0
attr autoWarmupFilter false
attr interpolationmode sample-hold
attr recordingmode last
attr source "warmup(atomic(constant0(packetPushEnded) + sum(packetLength(packetPushStarted)) - sum(packetLength(packetPulled)) - sum(packetLength(packetRemoved)) - sum(packetLength(packetDropped))))"
attr title "queue bit length, last"
attr unit b
scalar SingleCell_Standalone.server.ppp[0].queue queueBitLength:max 0
attr autoWarmupFilter false
attr interpolationmode sample-hold
attr recordingmode max
attr source "warmup(atomic(constant0(packetPushEnded) + sum(packetLength(packetPushStarted)) - sum(packetLength(packetPulled)) - sum(packetLength(packetRemoved)) - sum(packetLength(packetDropped))))"
attr title "queue bit length, max"
attr unit b
scalar SingleCell_Standalone.server.ppp[0].queue queueBitLength:timeavg 0
attr autoWarmupFilter false
attr interpolationmode sample-hold
attr recordingmode timeavg
attr source "warmup(atomic(constant0(packetPushEnded) + sum(packetLength(packetPushStarted)) - sum(packetLength(packetPulled)) - sum(packetLength(packetRemoved)) - sum(packetLength(packetDropped))))"
attr title "queue bit length, timeavg"
attr unit b
statistic SingleCell_Standalone.server.ppp[0].queue queueingTime:histogram
field count 13500
field mean 0
field stddev 0
field min 0
field max 0
field sum 0
field sqrsum 0
attr interpolationmode none
attr recordingmode histogram
attr source queueingTime(packetPulled)
attr title "queueing times"
attr unit s
bin	-inf	0
bin	-0.5	0
bin	-0.48	0
bin	-0.46	0
bin	-0.44	0
bin	-0.42	0
bin	-0.4	0
bin	-0.38	0
bin	-0.36	0
bin	-0.34	0
bin	-0.32	0
bin	-0.3	0
bin	-0.28	0
bin	-0.26	0
bin	-0.24	0
bin	-0.22	0
bin	-0.2	0
bin	-0.18	0
bin	-0.16	0
bin	-0.14	0
bin	-0.12	0
bin	-0.1	0
bin	-0.08	0
bin	-0.06	0
bin	-0.04	0
bin	-0.02	0
bin	0	13500
bin	0.02	0
bin	0.04	0
bin	0.06	0
bin	0.08	0
bin	0.1	0
bin	0.12	0
bin	0.14	0
bin	0.16	0
bin	0.18	0
bin	0.2	0
bin	0.22	0
bin	0.24	0
bin	0.26	0
bin	0.28	0
bin	0.3	0
bin	0.32	0
bin	0.34	0
bin	0.36	0
bin	0.38	0
bin	0.4	0
bin	0.42	0
bin	0.44	0
bin	0.46	0
bin	0.48	0
bin	0.5	0
scalar SingleCell_Standalone.server.ppp[0].queue outgoingPackets:count 13500
attr recordingmode count
attr source packetPulled
attr title "outgoing packets, count"
attr unit pk
scalar SingleCell_Standalone.server.ppp[0].queue outgoingPacketLengths:sum 111024000
attr interpolationmode none
attr recordingmode sum
attr source packetLength(packetPulled)
attr title "outgoing packet lengths, sum"
attr unit b
statistic SingleCell_Standalone.server.ppp[0].queue outgoingPacketLengths:histogram
field count 13500
field mean 8224
field stddev 0
field min 8224
field max 8224
field sum 111024000
field sqrsum 913061376000
attr interpolationmode none
attr recordingmode histogram
attr source packetLength(packetPulled)
attr title "outgoing packet lengths"
attr unit b
bin	-inf	0
bin	8223	0
bin	8224	13500
bin	8225	0
statistic SingleCell_Standalone.server.ppp[0].queue flowQueueingTime:histogram
field count 0
field mean nan
field stddev nan
field min nan
field max nan
field sum 0
field sqrsum 0
attr interpolationmode none
attr recordingmode histogram
attr source queueingTime(demuxFlow(packetPulled))
attr title "flow queueing times"
attr unit s
bin	-inf	0
bin	0	0
bin	1	0
scalar SingleCell_Standalone.server.ppp[0].queue incomingPackets:count 13500
attr recordingmode count
attr source packetPushStarted
attr title "incoming packets, count"
attr unit pk
scalar SingleCell_Standalone.server.ppp[0].queue incomingPacketLengths:sum 111024000
attr interpolationmode none
attr recordingmode sum
attr source packetLength(packetPushStarted)
attr title "incoming packet lengths, sum"
attr unit b
statistic SingleCell_Standalone.server.ppp[0].queue incomingPacketLengths:histogram
field count 13500
field mean 8224
field stddev 0
field min 8224
field max 8224
field sum 111024000
field sqrsum 913061376000
attr interpolationmode none
attr recordingmode histogram
attr source packetLength(packetPushStarted)
attr title "incoming packet lengths"
attr unit b
bin	-inf	0
bin	8223	0
bin	8224	13500
bin	8225	0
scalar SingleCell_Standalone.server.ppp[0].queue droppedPacketsQueueOverflow:count 0
attr interpolationmode none
attr recordingmode count
attr source packetDropReasonIsQueueOverflow(packetDropped)
attr title "dropped packets: queue overflow, count"
attr unit pk
scalar SingleCell_Standalone.server.ppp[0].queue droppedPacketLengthsQueueOverflow:sum 0
attr interpolationmode none
attr recordingmode sum
attr source packetLength(packetDropReasonIsQueueOverflow(packetDropped))
attr title "dropped packet lengths: queue overflow, sum"
attr unit b
par SingleCell_Standalone.server.ppp[0].ppp typename "\"inet.linklayer.ppp.Ppp\""
par SingleCell_Standalone.server.ppp[0].ppp interfaceTableModule "\"SingleCell_Standalone.server.interfaceTable\""
par SingleCell_Standalone.server.ppp[0].ppp displayStringTextFormat "\"rate: %b\\nsent: %s, rcvd: %r\\nqueue: %q, drop: %d\""
par SingleCell_Standalone.server.ppp[0].ppp sendRawBytes false
par SingleCell_Standalone.server.ppp[0].ppp mtu 4470B
attr unit B
par SingleCell_Standalone.server.ppp[0].ppp stopOperationExtraTime -1s
attr unit s
par SingleCell_Standalone.server.ppp[0].ppp stopOperationTimeout 2s
attr unit s
scalar SingleCell_Standalone.server.ppp[0].ppp txPk:count 13500
attr interpolationmode none
attr recordingmode count
attr source packetSentToLower
attr title "packets transmitted, count"
scalar SingleCell_Standalone.server.ppp[0].ppp txPk:sum(packetBytes) 13972500
attr interpolationmode none
attr recordingmode sum(packetBytes)
attr source packetSentToLower
attr title "packets transmitted, sum(packetBytes)"
scalar SingleCell_Standalone.server.ppp[0].ppp rcvdPkFromHl:count 13500
attr interpolationmode none
attr recordingmode count
attr source packetReceivedFromUpper
attr title "packets received from higher layer, count"
scalar SingleCell_Standalone.server.ppp[0].ppp rcvdPkFromHl:sum(packetBytes) 13878000
attr interpolationmode none
attr recordingmode sum(packetBytes)
attr source packetReceivedFromUpper
attr title "packets received from higher layer, sum(packetBytes)"
scalar SingleCell_Standalone.server.ppp[0].ppp passedUpPk:count 0
attr interpolationmode none
attr recordingmode count
attr source packetSentToUpper
attr title "packets passed to higher layer, count"
scalar SingleCell_Standalone.server.ppp[0].ppp passedUpPk:sum(packetBytes) 0
attr interpolationmode none
attr recordingmode sum(packetBytes)
attr source packetSentToUpper
attr title "packets passed to higher layer, sum(packetBytes)"
scalar SingleCell_Standalone.server.ppp[0].ppp packetDropIncorrectlyReceived:count 0
attr interpolationmode none
attr recordingmode count
attr source packetDropReasonIsIncorrectlyReceived(packetDropped)
attr title "packet drop: incorrectly received, count"
scalar SingleCell_Standalone.server.ppp[0].ppp packetDropIncorrectlyReceived:sum(packetBytes) 0
attr interpolationmode none
attr recordingmode sum(packetBytes)
attr source packetDropReasonIsIncorrectlyReceived(packetDropped)
attr title "packet drop: incorrectly received, sum(packetBytes)"
scalar SingleCell_Standalone.server.ppp[0].ppp packetDropInterfaceDown:count 0
attr interpolationmode none
attr recordingmode count
attr source packetDropReasonIsInterfaceDown(packetDropped)
attr title "packet drop: interface down, count"
scalar SingleCell_Standalone.server.ppp[0].ppp packetDropInterfaceDown:sum(packetBytes) 0
attr interpolationmode none
attr recordingmode sum(packetBytes)
attr source packetDropReasonIsInterfaceDown(packetDropped)
attr title "packet drop: interface down, sum(packetBytes)"
scalar SingleCell_Standalone.server.ppp[0].ppp rxPkOk:count 0
attr interpolationmode none
attr recordingmode count
attr source rxPkOk
attr title "packets received OK, count"
scalar SingleCell_Standalone.server.ppp[0].ppp rxPkOk:sum(packetBytes) 0
attr interpolationmode none
attr recordingmode sum(packetBytes)
attr source rxPkOk
attr title "packets received OK, sum(packetBytes)"
scalar SingleCell_Standalone.server.ppp[0].ppp transmissionState:timeavg 0.001242002873627
attr interpolationmode sample-hold
attr recordingmode timeavg
attr source transmissionStateChanged
attr title "tx state, timeavg"
par SingleCell_Standalone.server.ppp[0] typename "\"inet.linklayer.ppp.PppInterface\""
par SingleCell_Standalone.server.ppp[0] displayStringTextFormat "\"%a (%i)\\n%m\""
par SingleCell_Standalone.server.ppp[0] recordPcap false
par SingleCell_Standalone.server.ppp[0] numPcapRecorders 0
par SingleCell_Standalone.server.ppp[0] interfaceTableModule "\"SingleCell_Standalone.server.interfaceTable\""
scalar SingleCell_Standalone.server.ppp[0] packetDropInterfaceDown:count 0
attr interpolationmode none
attr recordingmode count
attr source packetDropReasonIsInterfaceDown(packetDropped)
attr title "packet drops: interface down, count"
scalar SingleCell_Standalone.server.ppp[0] packetDropInterfaceDown:sum(packetBytes) 0
attr interpolationmode none
attr recordingmode sum(packetBytes)
attr source packetDropReasonIsInterfaceDown(packetDropped)
attr title "packet drops: interface down, sum(packetBytes)"
scalar SingleCell_Standalone.server.ppp[0] packetDropNoCarrier:count 0
attr interpolationmode none
attr recordingmode count
attr source packetDropReasonIsNoCarrier(packetDropped)
attr title "packet drops: no carrier, count"
scalar SingleCell_Standalone.server.ppp[0] packetDropNoCarrier:sum(packetBytes) 0
attr interpolationmode none
attr recordingmode sum(packetBytes)
attr source packetDropReasonIsNoCarrier(packetDropped)
attr title "packet drops: no carrier, sum(packetBytes)"
par SingleCell_Standalone.server.ipv4.transportIn.channel typename "\"ned.IdealChannel\""
par SingleCell_Standalone.server.ipv4.up.out[0].channel typename "\"ned.IdealChannel\""
par SingleCell_Standalone.server.ipv4.lp.out[2].channel typename "\"ned.IdealChannel\""
par SingleCell_Standalone.server.ipv4.ifIn.channel typename "\"ned.IdealChannel\""
par SingleCell_Standalone.server.ipv4.configurator typename "\"inet.networklayer.configurator.ipv4.Ipv4NodeConfigurator\""
par SingleCell_Standalone.server.ipv4.configurator interfaceTableModule "\"SingleCell_Standalone.server.interfaceTable\""
par SingleCell_Standalone.server.ipv4.configurator routingTableModule "\"SingleCell_Standalone.server.ipv4.routingTable\""
par SingleCell_Standalone.server.ipv4.configurator networkConfiguratorModule "\"configurator\""
par SingleCell_Standalone.server.ipv4.configurator configureRoutingTable true
par SingleCell_Standalone.server.ipv4.routingTable typename "\"inet.networklayer.ipv4.Ipv4RoutingTable\""
par SingleCell_Standalone.server.ipv4.routingTable interfaceTableModule "\"SingleCell_Standalone.server.interfaceTable\""
par SingleCell_Standalone.server.ipv4.routingTable routerId "\"auto\""
par SingleCell_Standalone.server.ipv4.routingTable netmaskRoutes "\"*\""
par SingleCell_Standalone.server.ipv4.routingTable forwarding false
par SingleCell_Standalone.server.ipv4.routingTable multicastForwarding false
par SingleCell_Standalone.server.ipv4.routingTable useAdminDist false
par SingleCell_Standalone.server.ipv4.routingTable routingFile "\"\""
par SingleCell_Standalone.server.ipv4.natTable typename "\"inet.networklayer.ipv4.Ipv4NatTable\""
par SingleCell_Standalone.server.ipv4.natTable networkProtocolModule "\"^.ip\""
par SingleCell_Standalone.server.ipv4.natTable config "<config/> at content:1"
par SingleCell_Standalone.server.ipv4.up typename "\"inet.common.MessageDispatcher\""
par SingleCell_Standalone.server.ipv4.up displayStringTextFormat "\"processed %p pk (%l)\""
par SingleCell_Standalone.server.ipv4.up forwardServiceRegistration true
par SingleCell_Standalone.server.ipv4.up forwardProtocolRegistration true
par SingleCell_Standalone.server.ipv4.igmp typename "\"inet.networklayer.ipv4.Igmpv2\""
par SingleCell_Standalone.server.ipv4.igmp interfaceTableModule "\"SingleCell_Standalone.server.interfaceTable\""
par SingleCell_Standalone.server.ipv4.igmp routingTableModule "\"SingleCell_Standalone.server.ipv4.routingTable\""
par SingleCell_Standalone.server.ipv4.igmp crcMode "\"declared\""
attr enum declared,computed
par SingleCell_Standalone.server.ipv4.igmp enabled true
par SingleCell_Standalone.server.ipv4.igmp robustnessVariable 2
par SingleCell_Standalone.server.ipv4.igmp queryInterval 125s
attr unit s
par SingleCell_Standalone.server.ipv4.igmp queryResponseInterval 10s
attr unit s
par SingleCell_Standalone.server.ipv4.igmp groupMembershipInterval 260s
attr unit s
par SingleCell_Standalone.server.ipv4.igmp otherQuerierPresentInterval 255s
attr unit s
par SingleCell_Standalone.server.ipv4.igmp startupQueryInterval 31.25s
attr unit s
par SingleCell_Standalone.server.ipv4.igmp startupQueryCount 2
par SingleCell_Standalone.server.ipv4.igmp lastMemberQueryInterval 1s
attr unit s
par SingleCell_Standalone.server.ipv4.igmp lastMemberQueryCount 2
par SingleCell_Standalone.server.ipv4.igmp unsolicitedReportInterval 10s
attr unit s
par SingleCell_Standalone.server.ipv4.icmp typename "\"inet.networklayer.ipv4.Icmp\""
par SingleCell_Standalone.server.ipv4.icmp interfaceTableModule "\"SingleCell_Standalone.server.interfaceTable\""
par SingleCell_Standalone.server.ipv4.icmp routingTableModule "\"SingleCell_Standalone.server.ipv4.routingTable\""
par SingleCell_Standalone.server.ipv4.icmp crcMode "\"declared\""
attr enum declared,computed
attr mutable ""
par SingleCell_Standalone.server.ipv4.icmp quoteLength 8B
attr mutable ""
attr unit B
par SingleCell_Standalone.server.ipv4.mp typename "\"inet.common.MessageDispatcher\""
par SingleCell_Standalone.server.ipv4.mp displayStringTextFormat "\"processed %p pk (%l)\""
par SingleCell_Standalone.server.ipv4.mp forwardServiceRegistration true
par SingleCell_Standalone.server.ipv4.mp forwardProtocolRegistration true
par SingleCell_Standalone.server.ipv4.ip typename "\"inet.networklayer.ipv4.Ipv4\""
par SingleCell_Standalone.server.ipv4.ip interfaceTableModule "\"SingleCell_Standalone.server.interfaceTable\""
par SingleCell_Standalone.server.ipv4.ip routingTableModule "\"SingleCell_Standalone.server.ipv4.routingTable\""
par SingleCell_Standalone.server.ipv4.ip arpModule "\"SingleCell_Standalone.server.ipv4.arp\""
par SingleCell_Standalone.server.ipv4.ip icmpModule "\"SingleCell_Standalone.server.ipv4.icmp\""
par SingleCell_Standalone.server.ipv4.ip crcMode "\"declared\""
attr enum declared,computed
par SingleCell_Standalone.server.ipv4.ip timeToLive 32
par SingleCell_Standalone.server.ipv4.ip multicastTimeToLive 32
par SingleCell_Standalone.server.ipv4.ip fragmentTimeout 60s
attr unit s
par SingleCell_Standalone.server.ipv4.ip limitedBroadcast false
par SingleCell_Standalone.server.ipv4.ip directBroadcastInterfaces "\"\""
scalar SingleCell_Standalone.server.ipv4.ip packetDropAddressResolutionFailed:count 0
attr interpolationmode none
attr recordingmode count
attr source packetDropReasonIsAddressResolutionFailed(packetDropped)
attr title "packet drop: address resolution failed, count"
scalar SingleCell_Standalone.server.ipv4.ip packetDropAddressResolutionFailed:sum(packetBytes) 0
attr interpolationmode none
attr recordingmode sum(packetBytes)
attr source packetDropReasonIsAddressResolutionFailed(packetDropped)
attr title "packet drop: address resolution failed, sum(packetBytes)"
scalar SingleCell_Standalone.server.ipv4.ip packetDropHopLimitReached:count 0
attr interpolationmode none
attr recordingmode count
attr source packetDropReasonIsHopLimitReached(packetDropped)
attr title "packet drop: hop limit reached, count"
scalar SingleCell_Standalone.server.ipv4.ip packetDropHopLimitReached:sum(packetBytes) 0
attr interpolationmode none
attr recordingmode sum(packetBytes)
attr source packetDropReasonIsHopLimitReached(packetDropped)
attr title "packet drop: hop limit reached, sum(packetBytes)"
scalar SingleCell_Standalone.server.ipv4.ip packetDropForwardingDisabled:count 0
attr interpolationmode none
attr recordingmode count
attr source packetDropReasonIsForwardingDisabled(packetDropped)
attr title "packet drop: forwarding disabled, count"
scalar SingleCell_Standalone.server.ipv4.ip packetDropForwardingDisabled:sum(packetBytes) 0
attr interpolationmode none
attr recordingmode sum(packetBytes)
attr source packetDropReasonIsForwardingDisabled(packetDropped)
attr title "packet drop: forwarding disabled, sum(packetBytes)"
scalar SingleCell_Standalone.server.ipv4.ip packetDropNoInterfaceFound:count 0
attr interpolationmode none
attr recordingmode count
attr source packetDropReasonIsNoInterfaceFound(packetDropped)
attr title "packet drop: no interface found, count"
scalar SingleCell_Standalone.server.ipv4.ip packetDropNoInterfaceFound:sum(packetBytes) 0
attr interpolationmode none
attr recordingmode sum(packetBytes)
attr source packetDropReasonIsNoInterfaceFound(packetDropped)
attr title "packet drop: no interface found, sum(packetBytes)"
scalar SingleCell_Standalone.server.ipv4.ip packetDropNoRouteFound:count 0
attr interpolationmode none
attr recordingmode count
attr source packetDropReasonIsNoRouteFound(packetDropped)
attr title "packet drop: no route found, count"
scalar SingleCell_Standalone.server.ipv4.ip packetDropNoRouteFound:sum(packetBytes) 0
attr interpolationmode none
attr recordingmode sum(packetBytes)
attr source packetDropReasonIsNoRouteFound(packetDropped)
attr title "packet drop: no route found, sum(packetBytes)"
scalar SingleCell_Standalone.server.ipv4.ip packetDropUndefined:count 0
attr interpolationmode none
attr recordingmode count
attr source packetDropReasonIsUndefined(packetDropped)
attr title "packet drop: undefined, count"
scalar SingleCell_Standalone.server.ipv4.ip packetDropUndefined:sum(packetBytes) 0
attr interpolationmode none
attr recordingmode sum(packetBytes)
attr source packetDropReasonIsUndefined(packetDropped)
attr title "packet drop: undefined, sum(packetBytes)"
par SingleCell_Standalone.server.ipv4.arp typename "\"inet.networklayer.arp.ipv4.Arp\""
par SingleCell_Standalone.server.ipv4.arp interfaceTableModule "\"SingleCell_Standalone.server.interfaceTable\""
par SingleCell_Standalone.server.ipv4.arp routingTableModule "\"SingleCell_Standalone.server.ipv4.routingTable\""
par SingleCell_Standalone.server.ipv4.arp retryTimeout 1s
attr unit s
par SingleCell_Standalone.server.ipv4.arp retryCount 3
par SingleCell_Standalone.server.ipv4.arp cacheTimeout 120s
attr unit s
par SingleCell_Standalone.server.ipv4.arp proxyArpInterfaces "\"\""
scalar SingleCell_Standalone.server.ipv4.arp arpReplySent:count 0
attr recordingmode count
attr source arpReplySent
attr title "ARP replies sent, count"
scalar SingleCell_Standalone.server.ipv4.arp arpReplySent:sum(packetBytes) 0
attr recordingmode sum(packetBytes)
attr source arpReplySent
attr title "ARP replies sent, sum(packetBytes)"
scalar SingleCell_Standalone.server.ipv4.arp arpRequestSent:count 0
attr recordingmode count
attr source arpRequestSent
attr title "ARP request sent, count"
scalar SingleCell_Standalone.server.ipv4.arp arpRequestSent:sum(packetBytes) 0
attr recordingmode sum(packetBytes)
attr source arpRequestSent
attr title "ARP request sent, sum(packetBytes)"
scalar SingleCell_Standalone.server.ipv4.arp arpResolutionFailed:count 0
attr recordingmode count
attr title "ARP failed resolutions, count"
scalar SingleCell_Standalone.server.ipv4.arp arpResolutionCompleted:count 0
attr recordingmode count
attr title "ARP completed resolutions, count"
scalar SingleCell_Standalone.server.ipv4.arp arpResolutionInitiated:count 0
attr recordingmode count
attr title "ARP initiated resolutions, count"
par SingleCell_Standalone.server.ipv4.lp typename "\"inet.common.MessageDispatcher\""
par SingleCell_Standalone.server.ipv4.lp displayStringTextFormat "\"processed %p pk (%l)\""
par SingleCell_Standalone.server.ipv4.lp forwardServiceRegistration true
par SingleCell_Standalone.server.ipv4.lp forwardProtocolRegistration true
par SingleCell_Standalone.server.ipv4 typename "\"inet.networklayer.ipv4.Ipv4NetworkLayer\""
par SingleCell_Standalone.server.ipv4 forwarding false
par SingleCell_Standalone.server.ipv4 multicastForwarding false
par SingleCell_Standalone.server.ipv4 interfaceTableModule "\"SingleCell_Standalone.server.interfaceTable\""
par SingleCell_Standalone.server.ipv4 displayStringTextFormat "\"%i\""
par SingleCell_Standalone.server.nl typename "\"inet.common.MessageDispatcher\""
par SingleCell_Standalone.server.nl displayStringTextFormat "\"processed %p pk (%l)\""
par SingleCell_Standalone.server.nl forwardServiceRegistration true
par SingleCell_Standalone.server.nl forwardProtocolRegistration true
par SingleCell_Standalone.server.udp typename "\"inet.transportlayer.udp.Udp\""
par SingleCell_Standalone.server.udp interfaceTableModule "\"SingleCell_Standalone.server.interfaceTable\""
par SingleCell_Standalone.server.udp icmpModule "\"^.ipv4.icmp\""
par SingleCell_Standalone.server.udp icmpv6Module "\"^.ipv6.icmpv6\""
par SingleCell_Standalone.server.udp crcMode "\"declared\""
attr enum disabled,declared,computed
par SingleCell_Standalone.server.udp defaultMulticastLoop true
scalar SingleCell_Standalone.server.udp packetReceived:count 0
attr interpolationmode none
attr recordingmode count
attr source packetReceived
attr title "packets received, count"
scalar SingleCell_Standalone.server.udp packetReceived:sum(packetBytes) 0
attr interpolationmode none
attr recordingmode sum(packetBytes)
attr source packetReceived
attr title "packets received, sum(packetBytes)"
scalar SingleCell_Standalone.server.udp packetSent:count 13500
attr interpolationmode none
attr recordingmode count
attr source packetSent
attr title "packets sent, count"
scalar SingleCell_Standalone.server.udp packetSent:sum(packetBytes) 13608000
attr interpolationmode none
attr recordingmode sum(packetBytes)
attr source packetSent
attr title "packets sent, sum(packetBytes)"
scalar SingleCell_Standalone.server.udp passedUpPk:count 0
attr interpolationmode none
attr recordingmode count
attr source packetSentToUpper
attr title "packets passed up, count"
scalar SingleCell_Standalone.server.udp droppedPkWrongPort:count 0
attr interpolationmode none
attr recordingmode count
attr source packetDropReasonIsNoPortFound(packetDropped)
attr title "packets dropped (wrong port), count"
scalar SingleCell_Standalone.server.udp droppedPkBadChecksum:count 0
attr interpolationmode none
attr recordingmode count
attr source packetDropReasonIsIncorrectlyReceived(packetDropped)
attr title "packets dropped (checksum error), count"
par SingleCell_Standalone.server.tcp typename "\"inet.transportlayer.tcp.Tcp\""
par SingleCell_Standalone.server.tcp crcMode "\"declared\""
attr enum declared,computed
par SingleCell_Standalone.server.tcp advertisedWindow 7504
par SingleCell_Standalone.server.tcp delayedAcksEnabled false
par SingleCell_Standalone.server.tcp nagleEnabled true
par SingleCell_Standalone.server.tcp limitedTransmitEnabled false
par SingleCell_Standalone.server.tcp increasedIWEnabled false
par SingleCell_Standalone.server.tcp sackSupport false
par SingleCell_Standalone.server.tcp windowScalingSupport false
par SingleCell_Standalone.server.tcp windowScalingFactor -1
par SingleCell_Standalone.server.tcp timestampSupport false
par SingleCell_Standalone.server.tcp mss 536
par SingleCell_Standalone.server.tcp msl 120s
attr unit s
par SingleCell_Standalone.server.tcp tcpAlgorithmClass "\"TcpReno\""
attr enum TcpVegas,TcpWestwood,TcpNewReno,TcpReno,TcpTahoe,TcpNoCongestionControl
par SingleCell_Standalone.server.tcp useDataNotification false
par SingleCell_Standalone.server.tcp dupthresh 3
par SingleCell_Standalone.server.tcp initialSsthresh 4294967295
par SingleCell_Standalone.server.tcp stopOperationExtraTime 0s
attr unit s
par SingleCell_Standalone.server.tcp stopOperationTimeout 2s
attr unit s
par SingleCell_Standalone.server.tcp ecnWillingness false
par SingleCell_Standalone.server.tcp dctcpGamma 0.0625
par SingleCell_Standalone.server.tn typename "\"inet.common.MessageDispatcher\""
par SingleCell_Standalone.server.tn displayStringTextFormat "\"processed %p pk (%l)\""
par SingleCell_Standalone.server.tn forwardServiceRegistration true
par SingleCell_Standalone.server.tn forwardProtocolRegistration true
par SingleCell_Standalone.server.app[0] typename "\"simu5g.apps.cbr.CbrSender\""
par SingleCell_Standalone.server.app[0] localPort 3088
par SingleCell_Standalone.server.app[0] destPort 1000
par SingleCell_Standalone.server.app[0] destAddress "\"ue[0]\""
par SingleCell_Standalone.server.app[0] PacketSize 1000
par SingleCell_Standalone.server.app[0] sampling_time 0.01s
attr unit s
par SingleCell_Standalone.server.app[0] startTime 0.0424607s
attr unit s
par SingleCell_Standalone.server.app[0] finishTime 0s
attr unit s
par SingleCell_Standalone.server.app[0] tos -1
scalar SingleCell_Standalone.server.app[0] cbrGeneratedBytes:timeavg 1000
attr recordingmode timeavg
attr source cbrGeneratedBytesSignal
attr title "Bytes generated by the application, timeavg"
attr unit Bps
scalar SingleCell_Standalone.server.app[0] cbrGeneratedBytes:mean 1000
attr recordingmode mean
attr source cbrGeneratedBytesSignal
attr title "Bytes generated by the application, mean"
attr unit Bps
scalar SingleCell_Standalone.server.app[0] cbrGeneratedBytes:last(sumPerDuration) 100083.83979924
attr recordingmode last(sumPerDuration)
attr source cbrGeneratedBytesSignal
attr title "Bytes generated by the application, last(sumPerDuration)"
attr unit Bps
scalar SingleCell_Standalone.server.app[0] cbrGeneratedBytes:sum 900000
attr recordingmode sum
attr source cbrGeneratedBytesSignal
attr title "Bytes generated by the application, sum"
attr unit Bps
scalar SingleCell_Standalone.server.app[0] cbrGeneratedThroughtput:timeavg nan
attr recordingmode timeavg
attr source cbrGeneratedThroughtputSignal
attr title "Throughput generated by the application, timeavg"
attr unit Bps
scalar SingleCell_Standalone.server.app[0] cbrGeneratedThroughtput:mean 100000
attr recordingmode mean
attr source cbrGeneratedThroughtputSignal
attr title "Throughput generated by the application, mean"
attr unit Bps
scalar SingleCell_Standalone.server.app[0] cbrGeneratedThroughtput:last(sumPerDuration) 11111.111111111
attr recordingmode last(sumPerDuration)
attr source cbrGeneratedThroughtputSignal
attr title "Throughput generated by the application, last(sumPerDuration)"
attr unit Bps
scalar SingleCell_Standalone.server.app[0] cbrGeneratedThroughtput:sum 100000
attr recordingmode sum
attr source cbrGeneratedThroughtputSignal
attr title "Throughput generated by the application, sum"
attr unit Bps
par SingleCell_Standalone.server.app[1] typename "\"simu5g.apps.cbr.CbrSender\""
par SingleCell_Standalone.server.app[1] localPort 3089
par SingleCell_Standalone.server.app[1] destPort 1000
par SingleCell_Standalone.server.app[1] destAddress "\"ue[1]\""
par SingleCell_Standalone.server.app[1] PacketSize 1000
par SingleCell_Standalone.server.app[1] sampling_time 0.01s
attr unit s
par SingleCell_Standalone.server.app[1] startTime 0.0242762s
attr unit s
par SingleCell_Standalone.server.app[1] finishTime 0s
attr unit s
par SingleCell_Standalone.server.app[1] tos -1
scalar SingleCell_Standalone.server.app[1] cbrGeneratedBytes:timeavg 1000
attr recordingmode timeavg
attr source cbrGeneratedBytesSignal
attr title "Bytes generated by the application, timeavg"
attr unit Bps
scalar SingleCell_Standalone.server.app[1] cbrGeneratedBytes:mean 1000
attr recordingmode mean
attr source cbrGeneratedBytesSignal
attr title "Bytes generated by the application, mean"
attr unit Bps
scalar SingleCell_Standalone.server.app[1] cbrGeneratedBytes:last(sumPerDuration) 100063.63873061
attr recordingmode last(sumPerDuration)
attr source cbrGeneratedBytesSignal
attr title "Bytes generated by the application, last(sumPerDuration)"
attr unit Bps
scalar SingleCell_Standalone.server.app[1] cbrGeneratedBytes:sum 900000
attr recordingmode sum
attr source cbrGeneratedBytesSignal
attr title "Bytes generated by the application, sum"
attr unit Bps
scalar SingleCell_Standalone.server.app[1] cbrGeneratedThroughtput:timeavg nan
attr recordingmode timeavg
attr source cbrGeneratedThroughtputSignal
attr title "Throughput generated by the application, timeavg"
attr unit Bps
scalar SingleCell_Standalone.server.app[1] cbrGeneratedThroughtput:mean 100000
attr recordingmode mean
attr source cbrGeneratedThroughtputSignal
attr title "Throughput generated by the application, mean"
attr unit Bps
scalar SingleCell_Standalone.server.app[1] cbrGeneratedThroughtput:last(sumPerDuration) 11111.111111111
attr recordingmode last(sumPerDuration)
attr source cbrGeneratedThroughtputSignal
attr title "Throughput generated by the application, last(sumPerDuration)"
attr unit Bps
scalar SingleCell_Standalone.server.app[1] cbrGeneratedThroughtput:sum 100000
attr recordingmode sum
attr source cbrGeneratedThroughtputSignal
attr title "Throughput generated by the application, sum"
attr unit Bps
par SingleCell_Standalone.server.app[2] typename "\"simu5g.apps.cbr.CbrSender\""
par SingleCell_Standalone.server.app[2] localPort 3090
par SingleCell_Standalone.server.app[2] destPort 1000
par SingleCell_Standalone.server.app[2] destAddress "\"ue[2]\""
par SingleCell_Standalone.server.app[2] PacketSize 1000
par SingleCell_Standalone.server.app[2] sampling_time 0.01s
attr unit s
par SingleCell_Standalone.server.app[2] startTime 0.0290434s
attr unit s
par SingleCell_Standalone.server.app[2] finishTime 0s
attr unit s
par SingleCell_Standalone.server.app[2] tos -1
scalar SingleCell_Standalone.server.app[2] cbrGeneratedBytes:timeavg 1000
attr recordingmode timeavg
attr source cbrGeneratedBytesSignal
attr title "Bytes generated by the application, timeavg"
attr unit Bps
scalar SingleCell_Standalone.server.app[2] cbrGeneratedBytes:mean 1000
attr recordingmode mean
attr source cbrGeneratedBytesSignal
attr title "Bytes generated by the application, mean"
attr unit Bps
scalar SingleCell_Standalone.server.app[2] cbrGeneratedBytes:last(sumPerDuration) 100010.63047106
attr recordingmode last(sumPerDuration)
attr source cbrGeneratedBytesSignal
attr title "Bytes generated by the application, last(sumPerDuration)"
attr unit Bps
scalar SingleCell_Standalone.server.app[2] cbrGeneratedBytes:sum 900000
attr recordingmode sum
attr source cbrGeneratedBytesSignal
attr title "Bytes generated by the application, sum"
attr unit Bps
scalar SingleCell_Standalone.server.app[2] cbrGeneratedThroughtput:timeavg nan
attr recordingmode timeavg
attr source cbrGeneratedThroughtputSignal
attr title "Throughput generated by the application, timeavg"
attr unit Bps
scalar SingleCell_Standalone.server.app[2] cbrGeneratedThroughtput:mean 100000
attr recordingmode mean
attr source cbrGeneratedThroughtputSignal
attr title "Throughput generated by the application, mean"
attr unit Bps
scalar SingleCell_Standalone.server.app[2] cbrGeneratedThroughtput:last(sumPerDuration) 11111.111111111
attr recordingmode last(sumPerDuration)
attr source cbrGeneratedThroughtputSignal
attr title "Throughput generated by the application, last(sumPerDuration)"
attr unit Bps
scalar SingleCell_Standalone.server.app[2] cbrGeneratedThroughtput:sum 100000
attr recordingmode sum
attr source cbrGeneratedThroughtputSignal
attr title "Throughput generated by the application, sum"
attr unit Bps
par SingleCell_Standalone.server.app[3] typename "\"simu5g.apps.cbr.CbrSender\""
par SingleCell_Standalone.server.app[3] localPort 3091
par SingleCell_Standalone.server.app[3] destPort 1000
par SingleCell_Standalone.server.app[3] destAddress "\"ue[3]\""
par SingleCell_Standalone.server.app[3] PacketSize 1000
par SingleCell_Standalone.server.app[3] sampling_time 0.01s
attr unit s
par SingleCell_Standalone.server.app[3] startTime 0.0473536s
attr unit s
par SingleCell_Standalone.server.app[3] finishTime 0s
attr unit s
par SingleCell_Standalone.server.app[3] tos -1
scalar SingleCell_Standalone.server.app[3] cbrGeneratedBytes:timeavg 1000
attr recordingmode timeavg
attr source cbrGeneratedBytesSignal
attr title "Bytes generated by the application, timeavg"
attr unit Bps
scalar SingleCell_Standalone.server.app[3] cbrGeneratedBytes:mean 1000
attr recordingmode mean
attr source cbrGeneratedBytesSignal
attr title "Bytes generated by the application, mean"
attr unit Bps
scalar SingleCell_Standalone.server.app[3] cbrGeneratedBytes:last(sumPerDuration) 100029.41309741
attr recordingmode last(sumPerDuration)
attr source cbrGeneratedBytesSignal
attr title "Bytes generated by the application, last(sumPerDuration)"
attr unit Bps
scalar SingleCell_Standalone.server.app[3] cbrGeneratedBytes:sum 900000
attr recordingmode sum
attr source cbrGeneratedBytesSignal
attr title "Bytes generated by the application, sum"
attr unit Bps
scalar SingleCell_Standalone.server.app[3] cbrGeneratedThroughtput:timeavg nan
attr recordingmode timeavg
attr source cbrGeneratedThroughtputSignal
attr title "Throughput generated by the application, timeavg"
attr unit Bps
scalar SingleCell_Standalone.server.app[3] cbrGeneratedThroughtput:mean 100000
attr recordingmode mean
attr source cbrGeneratedThroughtputSignal
attr title "Throughput generated by the application, mean"
attr unit Bps
scalar SingleCell_Standalone.server.app[3] cbrGeneratedThroughtput:last(sumPerDuration) 11111.111111111
attr recordingmode last(sumPerDuration)
attr source cbrGeneratedThroughtputSignal
attr title "Throughput generated by the application, last(sumPerDuration)"
attr unit Bps
scalar SingleCell_Standalone.server.app[3] cbrGeneratedThroughtput:sum 100000
attr recordingmode sum
attr source cbrGeneratedThroughtputSignal
attr title "Throughput generated by the application, sum"
attr unit Bps
par SingleCell_Standalone.server.app[4] typename "\"simu5g.apps.cbr.CbrSender\""
par SingleCell_Standalone.server.app[4] localPort 3092
par SingleCell_Standalone.server.app[4] destPort 1000
par SingleCell_Standalone.server.app[4] destAddress "\"ue[4]\""
par SingleCell_Standalone.server.app[4] PacketSize 1000
par SingleCell_Standalone.server.app[4] sampling_time 0.01s
attr unit s
par SingleCell_Standalone.server.app[4] startTime 0.0309262s
attr unit s
par SingleCell_Standalone.server.app[4] finishTime 0s
attr unit s
par SingleCell_Standalone.server.app[4] tos -1
scalar SingleCell_Standalone.server.app[4] cbrGeneratedBytes:timeavg 1000
attr recordingmode timeavg
attr source cbrGeneratedBytesSignal
attr title "Bytes generated by the application, timeavg"
attr unit Bps
scalar SingleCell_Standalone.server.app[4] cbrGeneratedBytes:mean 1000
attr recordingmode mean
attr source cbrGeneratedBytesSignal
attr title "Bytes generated by the application, mean"
attr unit Bps
scalar SingleCell_Standalone.server.app[4] cbrGeneratedBytes:last(sumPerDuration) 100100.92130746
attr recordingmode last(sumPerDuration)
attr source cbrGeneratedBytesSignal
attr title "Bytes generated by the application, last(sumPerDuration)"
attr unit Bps
scalar SingleCell_Standalone.server.app[4] cbrGeneratedBytes:sum 900000
attr recordingmode sum
attr source cbrGeneratedBytesSignal
attr title "Bytes generated by the application, sum"
attr unit Bps
scalar SingleCell_Standalone.server.app[4] cbrGeneratedThroughtput:timeavg nan
attr recordingmode timeavg
attr source cbrGeneratedThroughtputSignal
attr title "Throughput generated by the application, timeavg"
attr unit Bps
scalar SingleCell_Standalone.server.app[4] cbrGeneratedThroughtput:mean 100000
attr recordingmode mean
attr source cbrGeneratedThroughtputSignal
attr title "Throughput generated by the application, mean"
attr unit Bps
scalar SingleCell_Standalone.server.app[4] cbrGeneratedThroughtput:last(sumPerDuration) 11111.111111111
attr recordingmode last(sumPerDuration)
attr source cbrGeneratedThroughtputSignal
attr title "Throughput generated by the application, last(sumPerDuration)"
attr unit Bps
scalar SingleCell_Standalone.server.app[4] cbrGeneratedThroughtput:sum 100000
attr recordingmode sum
attr source cbrGeneratedThroughtputSignal
attr title "Throughput generated by the application, sum"
attr unit Bps
par SingleCell_Standalone.server.app[5] typename "\"simu5g.apps.cbr.CbrSender\""
par SingleCell_Standalone.server.app[5] localPort 3093
par SingleCell_Standalone.server.app[5] destPort 1000
par SingleCell_Standalone.server.app[5] destAddress "\"ue[5]\""
par SingleCell_Standalone.server.app[5] PacketSize 1000
par SingleCell_Standalone.server.app[5] sampling_time 0.01s
attr unit s
par SingleCell_Standalone.server.app[5] startTime 0.0246531s
attr unit s
par SingleCell_Standalone.server.app[5] finishTime 0s
attr unit s
par SingleCell_Standalone.server.app[5] tos -1
scalar SingleCell_Standalone.server.app[5] cbrGeneratedBytes:timeavg 1000
attr recordingmode timeavg
attr source cbrGeneratedBytesSignal
attr title "Bytes generated by the application, timeavg"
attr unit Bps
scalar SingleCell_Standalone.server.app[5] cbrGeneratedBytes:mean 1000
attr recordingmode mean
attr source cbrGeneratedBytesSignal
attr title "Bytes generated by the application, mean"
attr unit Bps
scalar SingleCell_Standalone.server.app[5] cbrGeneratedBytes:last(sumPerDuration) 100059.44546773
attr recordingmode last(sumPerDuration)
attr source cbrGeneratedBytesSignal
attr title "Bytes generated by the application, last(sumPerDuration)"
attr unit Bps
scalar SingleCell_Standalone.server.app[5] cbrGeneratedBytes:sum 900000
attr recordingmode sum
attr source cbrGeneratedBytesSignal
attr title "Bytes generated by the application, sum"
attr unit Bps
scalar SingleCell_Standalone.server.app[5] cbrGeneratedThroughtput:timeavg nan
attr recordingmode timeavg
attr source cbrGeneratedThroughtputSignal
attr title "Throughput generated by the application, timeavg"
attr unit Bps
scalar SingleCell_Standalone.server.app[5] cbrGeneratedThroughtput:mean 100000
attr recordingmode mean
attr source cbrGeneratedThroughtputSignal
attr title "Throughput generated by the application, mean"
attr unit Bps
scalar SingleCell_Standalone.server.app[5] cbrGeneratedThroughtput:last(sumPerDuration) 11111.111111111
attr recordingmode last(sumPerDuration)
attr source cbrGeneratedThroughtputSignal
attr title "Throughput generated by the application, last(sumPerDuration)"
attr unit Bps
scalar SingleCell_Standalone.server.app[5] cbrGeneratedThroughtput:sum 100000
attr recordingmode sum
attr source cbrGeneratedThroughtputSignal
attr title "Throughput generated by the application, sum"
attr unit Bps
par SingleCell_Standalone.server.app[6] typename "\"simu5g.apps.cbr.CbrSender\""
par SingleCell_Standalone.server.app[6] localPort 3094
par SingleCell_Standalone.server.app[6] destPort 1000
par SingleCell_Standalone.server.app[6] destAddress "\"ue[6]\""
par SingleCell_Standalone.server.app[6] PacketSize 1000
par SingleCell_Standalone.server.app[6] sampling_time 0.01s
attr unit s
par SingleCell_Standalone.server.app[6] startTime 0.0200208s
attr unit s
par SingleCell_Standalone.server.app[6] finishTime 0s
attr unit s
par SingleCell_Standalone.server.app[6] tos -1
scalar SingleCell_Standalone.server.app[6] cbrGeneratedBytes:timeavg 1000
attr recordingmode timeavg
attr source cbrGeneratedBytesSignal
attr title "Bytes generated by the application, timeavg"
attr unit Bps
scalar SingleCell_Standalone.server.app[6] cbrGeneratedBytes:mean 1000
attr recordingmode mean
attr source cbrGeneratedBytesSignal
attr title "Bytes generated by the application, mean"
attr unit Bps
scalar SingleCell_Standalone.server.app[6] cbrGeneratedBytes:last(sumPerDuration) 100111.00282032
attr recordingmode last(sumPerDuration)
attr source cbrGeneratedBytesSignal
attr title "Bytes generated by the application, last(sumPerDuration)"
attr unit Bps
scalar SingleCell_Standalone.server.app[6] cbrGeneratedBytes:sum 900000
attr recordingmode sum
attr source cbrGeneratedBytesSignal
attr title "Bytes generated by the application, sum"
attr unit Bps
scalar SingleCell_Standalone.server.app[6] cbrGeneratedThroughtput:timeavg nan
attr recordingmode timeavg
attr source cbrGeneratedThroughtputSignal
attr title "Throughput generated by the application, timeavg"
attr unit Bps
scalar SingleCell_Standalone.server.app[6] cbrGeneratedThroughtput:mean 100000
attr recordingmode mean
attr source cbrGeneratedThroughtputSignal
attr title "Throughput generated by the application, mean"
attr unit Bps
scalar SingleCell_Standalone.server.app[6] cbrGeneratedThroughtput:last(sumPerDuration) 11111.111111111
attr recordingmode last(sumPerDuration)
attr source cbrGeneratedThroughtputSignal
attr title "Throughput generated by the application, last(sumPerDuration)"
attr unit Bps
scalar SingleCell_Standalone.server.app[6] cbrGeneratedThroughtput:sum 100000
attr recordingmode sum
attr source cbrGeneratedThroughtputSignal
attr title "Throughput generated by the application, sum"
attr unit Bps
par SingleCell_Standalone.server.app[7] typename "\"simu5g.apps.cbr.CbrSender\""
par SingleCell_Standalone.server.app[7] localPort 3095
par SingleCell_Standalone.server.app[7] destPort 1000
par SingleCell_Standalone.server.app[7] destAddress "\"ue[7]\""
par SingleCell_Standalone.server.app[7] PacketSize 1000
par SingleCell_Standalone.server.app[7] sampling_time 0.01s
attr unit s
par SingleCell_Standalone.server.app[7] startTime 0.0470457s
attr unit s
par SingleCell_Standalone.server.app[7] finishTime 0s
attr unit s
par SingleCell_Standalone.server.app[7] tos -1
scalar SingleCell_Standalone.server.app[7] cbrGeneratedBytes:timeavg 1000
attr recordingmode timeavg
attr source cbrGeneratedBytesSignal
attr title "Bytes generated by the application, timeavg"
attr unit Bps
scalar SingleCell_Standalone.server.app[7] cbrGeneratedBytes:mean 1000
attr recordingmode mean
attr source cbrGeneratedBytesSignal
attr title "Bytes generated by the application, mean"
attr unit Bps
scalar SingleCell_Standalone.server.app[7] cbrGeneratedBytes:last(sumPerDuration) 100032.83683201
attr recordingmode last(sumPerDuration)
attr source cbrGeneratedBytesSignal
attr title "Bytes generated by the application, last(sumPerDuration)"
attr unit Bps
scalar SingleCell_Standalone.server.app[7] cbrGeneratedBytes:sum 900000
attr recordingmode sum
attr source cbrGeneratedBytesSignal
attr title "Bytes generated by the application, sum"
attr unit Bps
scalar SingleCell_Standalone.server.app[7] cbrGeneratedThroughtput:timeavg nan
attr recordingmode timeavg
attr source cbrGeneratedThroughtputSignal
attr title "Throughput generated by the application, timeavg"
attr unit Bps
scalar SingleCell_Standalone.server.app[7] cbrGeneratedThroughtput:mean 100000
attr recordingmode mean
attr source cbrGeneratedThroughtputSignal
attr title "Throughput generated by the application, mean"
attr unit Bps
scalar SingleCell_Standalone.server.app[7] cbrGeneratedThroughtput:last(sumPerDuration) 11111.111111111
attr recordingmode last(sumPerDuration)
attr source cbrGeneratedThroughtputSignal
attr title "Throughput generated by the application, last(sumPerDuration)"
attr unit Bps
scalar SingleCell_Standalone.server.app[7] cbrGeneratedThroughtput:sum 100000
attr recordingmode sum
attr source cbrGeneratedThroughtputSignal
attr title "Throughput generated by the application, sum"
attr unit Bps
par SingleCell_Standalone.server.app[8] typename "\"simu5g.apps.cbr.CbrSender\""
par SingleCell_Standalone.server.app[8] localPort 3096
par SingleCell_Standalone.server.app[8] destPort 1000
par SingleCell_Standalone.server.app[8] destAddress "\"ue[8]\""
par SingleCell_Standalone.server.app[8] PacketSize 1000
par SingleCell_Standalone.server.app[8] sampling_time 0.01s
attr unit s
par SingleCell_Standalone.server.app[8] startTime 0.0342017s
attr unit s
par SingleCell_Standalone.server.app[8] finishTime 0s
attr unit s
par SingleCell_Standalone.server.app[8] tos -1
scalar SingleCell_Standalone.server.app[8] cbrGeneratedBytes:timeavg 1000
attr recordingmode timeavg
attr source cbrGeneratedBytesSignal
attr title "Bytes generated by the application, timeavg"
attr unit Bps
scalar SingleCell_Standalone.server.app[8] cbrGeneratedBytes:mean 1000
attr recordingmode mean
attr source cbrGeneratedBytesSignal
attr title "Bytes generated by the application, mean"
attr unit Bps
scalar SingleCell_Standalone.server.app[8] cbrGeneratedBytes:last(sumPerDuration) 100064.46685779
attr recordingmode last(sumPerDuration)
attr source cbrGeneratedBytesSignal
attr title "Bytes generated by the application, last(sumPerDuration)"
attr unit Bps
scalar SingleCell_Standalone.server.app[8] cbrGeneratedBytes:sum 900000
attr recordingmode sum
attr source cbrGeneratedBytesSignal
attr title "Bytes generated by the application, sum"
attr unit Bps
scalar SingleCell_Standalone.server.app[8] cbrGeneratedThroughtput:timeavg nan
attr recordingmode timeavg
attr source cbrGeneratedThroughtputSignal
attr title "Throughput generated by the application, timeavg"
attr unit Bps
scalar SingleCell_Standalone.server.app[8] cbrGeneratedThroughtput:mean 100000
attr recordingmode mean
attr source cbrGeneratedThroughtputSignal
attr title "Throughput generated by the application, mean"
attr unit Bps
scalar SingleCell_Standalone.server.app[8] cbrGeneratedThroughtput:last(sumPerDuration) 11111.111111111
attr recordingmode last(sumPerDuration)
attr source cbrGeneratedThroughtputSignal
attr title "Throughput generated by the application, last(sumPerDuration)"
attr unit Bps
scalar SingleCell_Standalone.server.app[8] cbrGeneratedThroughtput:sum 100000
attr recordingmode sum
attr source cbrGeneratedThroughtputSignal
attr title "Throughput generated by the application, sum"
attr unit Bps
par SingleCell_Standalone.server.app[9] typename "\"simu5g.apps.cbr.CbrSender\""
par SingleCell_Standalone.server.app[9] localPort 3097
par SingleCell_Standalone.server.app[9] destPort 1000
par SingleCell_Standalone.server.app[9] destAddress "\"ue[9]\""
par SingleCell_Standalone.server.app[9] PacketSize 1000
par SingleCell_Standalone.server.app[9] sampling_time 0.01s
attr unit s
par SingleCell_Standalone.server.app[9] startTime 0.0123427s
attr unit s
par SingleCell_Standalone.server.app[9] finishTime 0s
attr unit s
par SingleCell_Standalone.server.app[9] tos -1
scalar SingleCell_Standalone.server.app[9] cbrGeneratedBytes:timeavg 1000
attr recordingmode timeavg
attr source cbrGeneratedBytesSignal
attr title "Bytes generated by the application, timeavg"
attr unit Bps
scalar SingleCell_Standalone.server.app[9] cbrGeneratedBytes:mean 1000
attr recordingmode mean
attr source cbrGeneratedBytesSignal
attr title "Bytes generated by the application, mean"
attr unit Bps
scalar SingleCell_Standalone.server.app[9] cbrGeneratedBytes:last(sumPerDuration) 100085.15360187
attr recordingmode last(sumPerDuration)
attr source cbrGeneratedBytesSignal
attr title "Bytes generated by the application, last(sumPerDuration)"
attr unit Bps
scalar SingleCell_Standalone.server.app[9] cbrGeneratedBytes:sum 900000
attr recordingmode sum
attr source cbrGeneratedBytesSignal
attr title "Bytes generated by the application, sum"
attr unit Bps
scalar SingleCell_Standalone.server.app[9] cbrGeneratedThroughtput:timeavg nan
attr recordingmode timeavg
attr source cbrGeneratedThroughtputSignal
attr title "Throughput generated by the application, timeavg"
attr unit Bps
scalar SingleCell_Standalone.server.app[9] cbrGeneratedThroughtput:mean 100000
attr recordingmode mean
attr source cbrGeneratedThroughtputSignal
attr title "Throughput generated by the application, mean"
attr unit Bps
scalar SingleCell_Standalone.server.app[9] cbrGeneratedThroughtput:last(sumPerDuration) 11111.111111111
attr recordingmode last(sumPerDuration)
attr source cbrGeneratedThroughtputSignal
attr title "Throughput generated by the application, last(sumPerDuration)"
attr unit Bps
scalar SingleCell_Standalone.server.app[9] cbrGeneratedThroughtput:sum 100000
attr recordingmode sum
attr source cbrGeneratedThroughtputSignal
attr title "Throughput generated by the application, sum"
attr unit Bps
par SingleCell_Standalone.server.app[10] typename "\"simu5g.apps.cbr.CbrSender\""
par SingleCell_Standalone.server.app[10] localPort 3098
par SingleCell_Standalone.server.app[10] destPort 1000
par SingleCell_Standalone.server.app[10] destAddress "\"ue[10]\""
par SingleCell_Standalone.server.app[10] PacketSize 1000
par SingleCell_Standalone.server.app[10] sampling_time 0.01s
attr unit s
par SingleCell_Standalone.server.app[10] startTime 0.0221162s
attr unit s
par SingleCell_Standalone.server.app[10] finishTime 0s
attr unit s
par SingleCell_Standalone.server.app[10] tos -1
scalar SingleCell_Standalone.server.app[10] cbrGeneratedBytes:timeavg 1000
attr recordingmode timeavg
attr source cbrGeneratedBytesSignal
attr title "Bytes generated by the application, timeavg"
attr unit Bps
scalar SingleCell_Standalone.server.app[10] cbrGeneratedBytes:mean 1000
attr recordingmode mean
attr source cbrGeneratedBytesSignal
attr title "Bytes generated by the application, mean"
attr unit Bps
scalar SingleCell_Standalone.server.app[10] cbrGeneratedBytes:last(sumPerDuration) 100087.67466302
attr recordingmode last(sumPerDuration)
attr source cbrGeneratedBytesSignal
attr title "Bytes generated by the application, last(sumPerDuration)"
attr unit Bps
scalar SingleCell_Standalone.server.app[10] cbrGeneratedBytes:sum 900000
attr recordingmode sum
attr source cbrGeneratedBytesSignal
attr title "Bytes generated by the application, sum"
attr unit Bps
scalar SingleCell_Standalone.server.app[10] cbrGeneratedThroughtput:timeavg nan
attr recordingmode timeavg
attr source cbrGeneratedThroughtputSignal
attr title "Throughput generated by the application, timeavg"
attr unit Bps
scalar SingleCell_Standalone.server.app[10] cbrGeneratedThroughtput:mean 100000
attr recordingmode mean
attr source cbrGeneratedThroughtputSignal
attr title "Throughput generated by the application, mean"
attr unit Bps
scalar SingleCell_Standalone.server.app[10] cbrGeneratedThroughtput:last(sumPerDuration) 11111.111111111
attr recordingmode last(sumPerDuration)
attr source cbrGeneratedThroughtputSignal
attr title "Throughput generated by the application, last(sumPerDuration)"
attr unit Bps
scalar SingleCell_Standalone.server.app[10] cbrGeneratedThroughtput:sum 100000
attr recordingmode sum
attr source cbrGeneratedThroughtputSignal
attr title "Throughput generated by the application, sum"
attr unit Bps
par SingleCell_Standalone.server.app[11] typename "\"simu5g.apps.cbr.CbrSender\""
par SingleCell_Standalone.server.app[11] localPort 3099
par SingleCell_Standalone.server.app[11] destPort 1000
par SingleCell_Standalone.server.app[11] destAddress "\"ue[11]\""
par SingleCell_Standalone.server.app[11] PacketSize 1000
par SingleCell_Standalone.server.app[11] sampling_time 0.01s
attr unit s
par SingleCell_Standalone.server.app[11] startTime 0.0187976s
attr unit s
par SingleCell_Standalone.server.app[11] finishTime 0s
attr unit s
par SingleCell_Standalone.server.app[11] tos -1
scalar SingleCell_Standalone.server.app[11] cbrGeneratedBytes:timeavg 1000
attr recordingmode timeavg
attr source cbrGeneratedBytesSignal
attr title "Bytes generated by the application, timeavg"
attr unit Bps
scalar SingleCell_Standalone.server.app[11] cbrGeneratedBytes:mean 1000
attr recordingmode mean
attr source cbrGeneratedBytesSignal
attr title "Bytes generated by the application, mean"
attr unit Bps
scalar SingleCell_Standalone.server.app[11] cbrGeneratedBytes:last(sumPerDuration) 100013.36179849
attr recordingmode last(sumPerDuration)
attr source cbrGeneratedBytesSignal
attr title "Bytes generated by the application, last(sumPerDuration)"
attr unit Bps
scalar SingleCell_Standalone.server.app[11] cbrGeneratedBytes:sum 900000
attr recordingmode sum
attr source cbrGeneratedBytesSignal
attr title "Bytes generated by the application, sum"
attr unit Bps
scalar SingleCell_Standalone.server.app[11] cbrGeneratedThroughtput:timeavg nan
attr recordingmode timeavg
attr source cbrGeneratedThroughtputSignal
attr title "Throughput generated by the application, timeavg"
attr unit Bps
scalar SingleCell_Standalone.server.app[11] cbrGeneratedThroughtput:mean 100000
attr recordingmode mean
attr source cbrGeneratedThroughtputSignal
attr title "Throughput generated by the application, mean"
attr unit Bps
scalar SingleCell_Standalone.server.app[11] cbrGeneratedThroughtput:last(sumPerDuration) 11111.111111111
attr recordingmode last(sumPerDuration)
attr source cbrGeneratedThroughtputSignal
attr title "Throughput generated by the application, last(sumPerDuration)"
attr unit Bps
scalar SingleCell_Standalone.server.app[11] cbrGeneratedThroughtput:sum 100000
attr recordingmode sum
attr source cbrGeneratedThroughtputSignal
attr title "Throughput generated by the application, sum"
attr unit Bps
par SingleCell_Standalone.server.app[12] typename "\"simu5g.apps.cbr.CbrSender\""
par SingleCell_Standalone.server.app[12] localPort 3100
par SingleCell_Standalone.server.app[12] destPort 1000
par SingleCell_Standalone.server.app[12] destAddress "\"ue[12]\""
par SingleCell_Standalone.server.app[12] PacketSize 1000
par SingleCell_Standalone.server.app[12] sampling_time 0.01s
attr unit s
par SingleCell_Standalone.server.app[12] startTime 0.0330914s
attr unit s
par SingleCell_Standalone.server.app[12] finishTime 0s
attr unit s
par SingleCell_Standalone.server.app[12] tos -1
scalar SingleCell_Standalone.server.app[12] cbrGeneratedBytes:timeavg 1000
attr recordingmode timeavg
attr source cbrGeneratedBytesSignal
attr title "Bytes generated by the application, timeavg"
attr unit Bps
scalar SingleCell_Standalone.server.app[12] cbrGeneratedBytes:mean 1000
attr recordingmode mean
attr source cbrGeneratedBytesSignal
attr title "Bytes generated by the application, mean"
attr unit Bps
scalar SingleCell_Standalone.server.app[12] cbrGeneratedBytes:last(sumPerDuration) 100076.82163281
attr recordingmode last(sumPerDuration)
attr source cbrGeneratedBytesSignal
attr title "Bytes generated by the application, last(sumPerDuration)"
attr unit Bps
scalar SingleCell_Standalone.server.app[12] cbrGeneratedBytes:sum 900000
attr recordingmode sum
attr source cbrGeneratedBytesSignal
attr title "Bytes generated by the application, sum"
attr unit Bps
scalar SingleCell_Standalone.server.app[12] cbrGeneratedThroughtput:timeavg nan
attr recordingmode timeavg
attr source cbrGeneratedThroughtputSignal
attr title "Throughput generated by the application, timeavg"
attr unit Bps
scalar SingleCell_Standalone.server.app[12] cbrGeneratedThroughtput:mean 100000
attr recordingmode mean
attr source cbrGeneratedThroughtputSignal
attr title "Throughput generated by the application, mean"
attr unit Bps
scalar SingleCell_Standalone.server.app[12] cbrGeneratedThroughtput:last(sumPerDuration) 11111.111111111
attr recordingmode last(sumPerDuration)
attr source cbrGeneratedThroughtputSignal
attr title "Throughput generated by the application, last(sumPerDuration)"
attr unit Bps
scalar SingleCell_Standalone.server.app[12] cbrGeneratedThroughtput:sum 100000
attr recordingmode sum
attr source cbrGeneratedThroughtputSignal
attr title "Throughput generated by the application, sum"
attr unit Bps
par SingleCell_Standalone.server.app[13] typename "\"simu5g.apps.cbr.CbrSender\""
par SingleCell_Standalone.server.app[13] localPort 3101
par SingleCell_Standalone.server.app[13] destPort 1000
par SingleCell_Standalone.server.app[13] destAddress "\"ue[13]\""
par SingleCell_Standalone.server.app[13] PacketSize 1000
par SingleCell_Standalone.server.app[13] sampling_time 0.01s
attr unit s
par SingleCell_Standalone.server.app[13] startTime 0.0437071s
attr unit s
par SingleCell_Standalone.server.app[13] finishTime 0s
attr unit s
par SingleCell_Standalone.server.app[13] tos -1
scalar SingleCell_Standalone.server.app[13] cbrGeneratedBytes:timeavg 1000
attr recordingmode timeavg
attr source cbrGeneratedBytesSignal
attr title "Bytes generated by the application, timeavg"
attr unit Bps
scalar SingleCell_Standalone.server.app[13] cbrGeneratedBytes:mean 1000
attr recordingmode mean
attr source cbrGeneratedBytesSignal
attr title "Bytes generated by the application, mean"
attr unit Bps
scalar SingleCell_Standalone.server.app[13] cbrGeneratedBytes:last(sumPerDuration) 100069.96980567
attr recordingmode last(sumPerDuration)
attr source cbrGeneratedBytesSignal
attr title "Bytes generated by the application, last(sumPerDuration)"
attr unit Bps
scalar SingleCell_Standalone.server.app[13] cbrGeneratedBytes:sum 900000
attr recordingmode sum
attr source cbrGeneratedBytesSignal
attr title "Bytes generated by the application, sum"
attr unit Bps
scalar SingleCell_Standalone.server.app[13] cbrGeneratedThroughtput:timeavg nan
attr recordingmode timeavg
attr source cbrGeneratedThroughtputSignal
attr title "Throughput generated by the application, timeavg"
attr unit Bps
scalar SingleCell_Standalone.server.app[13] cbrGeneratedThroughtput:mean 100000
attr recordingmode mean
attr source cbrGeneratedThroughtputSignal
attr title "Throughput generated by the application, mean"
attr unit Bps
scalar SingleCell_Standalone.server.app[13] cbrGeneratedThroughtput:last(sumPerDuration) 11111.111111111
attr recordingmode last(sumPerDuration)
attr source cbrGeneratedThroughtputSignal
attr title "Throughput generated by the application, last(sumPerDuration)"
attr unit Bps
scalar SingleCell_Standalone.server.app[13] cbrGeneratedThroughtput:sum 100000
attr recordingmode sum
attr source cbrGeneratedThroughtputSignal
attr title "Throughput generated by the application, sum"
attr unit Bps
par SingleCell_Standalone.server.app[14] typename "\"simu5g.apps.cbr.CbrSender\""
par SingleCell_Standalone.server.app[14] localPort 3102
par SingleCell_Standalone.server.app[14] destPort 1000
par SingleCell_Standalone.server.app[14] destAddress "\"ue[14]\""
par SingleCell_Standalone.server.app[14] PacketSize 1000
par SingleCell_Standalone.server.app[14] sampling_time 0.01s
attr unit s
par SingleCell_Standalone.server.app[14] startTime 0.0167871s
attr unit s
par SingleCell_Standalone.server.app[14] finishTime 0s
attr unit s
par SingleCell_Standalone.server.app[14] tos -1
scalar SingleCell_Standalone.server.app[14] cbrGeneratedBytes:timeavg 1000
attr recordingmode timeavg
attr source cbrGeneratedBytesSignal
attr title "Bytes generated by the application, timeavg"
attr unit Bps
scalar SingleCell_Standalone.server.app[14] cbrGeneratedBytes:mean 1000
attr recordingmode mean
attr source cbrGeneratedBytesSignal
attr title "Bytes generated by the application, mean"
attr unit Bps
scalar SingleCell_Standalone.server.app[14] cbrGeneratedBytes:last(sumPerDuration) 100035.71136141
attr recordingmode last(sumPerDuration)
attr source cbrGeneratedBytesSignal
attr title "Bytes generated by the application, last(sumPerDuration)"
attr unit Bps
scalar SingleCell_Standalone.server.app[14] cbrGeneratedBytes:sum 900000
attr recordingmode sum
attr source cbrGeneratedBytesSignal
attr title "Bytes generated by the application, sum"
attr unit Bps
scalar SingleCell_Standalone.server.app[14] cbrGeneratedThroughtput:timeavg nan
attr recordingmode timeavg
attr source cbrGeneratedThroughtputSignal
attr title "Throughput generated by the application, timeavg"
attr unit Bps
scalar SingleCell_Standalone.server.app[14] cbrGeneratedThroughtput:mean 100000
attr recordingmode mean
attr source cbrGeneratedThroughtputSignal
attr title "Throughput generated by the application, mean"
attr unit Bps
scalar SingleCell_Standalone.server.app[14] cbrGeneratedThroughtput:last(sumPerDuration) 11111.111111111
attr recordingmode last(sumPerDuration)
attr source cbrGeneratedThroughtputSignal
attr title "Throughput generated by the application, last(sumPerDuration)"
attr unit Bps
scalar SingleCell_Standalone.server.app[14] cbrGeneratedThroughtput:sum 100000
attr recordingmode sum
attr source cbrGeneratedThroughtputSignal
attr title "Throughput generated by the application, sum"
attr unit Bps
par SingleCell_Standalone.server.at typename "\"inet.common.MessageDispatcher\""
par SingleCell_Standalone.server.at displayStringTextFormat "\"processed %p pk (%l)\""
par SingleCell_Standalone.server.at forwardServiceRegistration true
par SingleCell_Standalone.server.at forwardProtocolRegistration true
par SingleCell_Standalone.server typename "\"inet.node.inet.StandardHost\""
par SingleCell_Standalone.server hasStatus false
par SingleCell_Standalone.server osgModel "\"\""
par SingleCell_Standalone.server osgModelColor "\"\""
par SingleCell_Standalone.server canvasImage "\"\""
par SingleCell_Standalone.server canvasImageColor "\"\""
par SingleCell_Standalone.server recordPcap false
par SingleCell_Standalone.server numPcapRecorders 0
par SingleCell_Standalone.server numLoInterfaces 1
par SingleCell_Standalone.server numWlanInterfaces 0
par SingleCell_Standalone.server numEthInterfaces 0
par SingleCell_Standalone.server numPppInterfaces 0
par SingleCell_Standalone.server numTunInterfaces 0
par SingleCell_Standalone.server numVirtInterfaces 0
par SingleCell_Standalone.server fcsMode "\"declared\""
attr enum declared,computed
par SingleCell_Standalone.server hasIpv4 true
par SingleCell_Standalone.server hasIpv6 false
par SingleCell_Standalone.server hasGn false
par SingleCell_Standalone.server forwarding false
par SingleCell_Standalone.server multicastForwarding false
par SingleCell_Standalone.server hasUdp true
par SingleCell_Standalone.server hasTcp true
par SingleCell_Standalone.server hasSctp false
par SingleCell_Standalone.server numApps 15
par SingleCell_Standalone.router.pppg$i[0].channel typename "\"ned.IdealChannel\""
par SingleCell_Standalone.router.ppp[0].phys$o.channel typename "\"ned.IdealChannel\""
par SingleCell_Standalone.router.pppg$i[1].channel typename "\"ned.IdealChannel\""
[...]
attr interpolationmode none
attr recordingmode count
attr source packetDropReasonIsNoCarrier(packetDropped)
attr title "packet drops: no carrier, count"
scalar SingleCell_Standalone.ue[14].cellularNic packetDropNoCarrier:sum(packetBytes) 0
attr interpolationmode none
attr recordingmode sum(packetBytes)
attr source packetDropReasonIsNoCarrier(packetDropped)
attr title "packet drops: no carrier, sum(packetBytes)"
par SingleCell_Standalone.ue[14].encap typename "\"inet.linklayer.ethernet.basic.EthernetEncapsulation\""
par SingleCell_Standalone.ue[14].encap registerProtocol true
par SingleCell_Standalone.ue[14].encap interfaceTableModule "\"SingleCell_Standalone.ue[14].interfaceTable\""
par SingleCell_Standalone.ue[14].encap fcsMode "\"declared\""
attr enum declared,computed
par SingleCell_Standalone.ue[14].encap stopOperationExtraTime -1s
attr unit s
par SingleCell_Standalone.ue[14].encap stopOperationTimeout 2s
attr unit s
scalar SingleCell_Standalone.ue[14].encap decapPk:count 0
attr interpolationmode none
attr recordingmode count
attr source decapPk
attr title "packets decapsulated, count"
scalar SingleCell_Standalone.ue[14].encap decapPk:sum(packetBytes) 0
attr interpolationmode none
attr recordingmode sum(packetBytes)
attr source decapPk
attr title "packets decapsulated, sum(packetBytes)"
scalar SingleCell_Standalone.ue[14].encap encapPk:count 0
attr interpolationmode none
attr recordingmode count
attr source encapPk
attr title "packets encapsulated, count"
scalar SingleCell_Standalone.ue[14].encap encapPk:sum(packetBytes) 0
attr interpolationmode none
attr recordingmode sum(packetBytes)
attr source encapPk
attr title "packets encapsulated, sum(packetBytes)"
scalar SingleCell_Standalone.ue[14].encap pauseSent:count 0
attr recordingmode count
attr title "pause sent, count"
scalar SingleCell_Standalone.ue[14].encap pauseSent:sum 0
attr recordingmode sum
attr title "pause sent, sum"
par SingleCell_Standalone.ue[14].ipv4.transportIn.channel typename "\"ned.IdealChannel\""
par SingleCell_Standalone.ue[14].ipv4.up.out[0].channel typename "\"ned.IdealChannel\""
par SingleCell_Standalone.ue[14].ipv4.lp.out[2].channel typename "\"ned.IdealChannel\""
par SingleCell_Standalone.ue[14].ipv4.ifIn.channel typename "\"ned.IdealChannel\""
par SingleCell_Standalone.ue[14].ipv4.configurator typename "\"inet.networklayer.configurator.ipv4.Ipv4NodeConfigurator\""
par SingleCell_Standalone.ue[14].ipv4.configurator interfaceTableModule "\"SingleCell_Standalone.ue[14].interfaceTable\""
par SingleCell_Standalone.ue[14].ipv4.configurator routingTableModule "\"SingleCell_Standalone.ue[14].ipv4.routingTable\""
par SingleCell_Standalone.ue[14].ipv4.configurator networkConfiguratorModule "\"configurator\""
par SingleCell_Standalone.ue[14].ipv4.configurator configureRoutingTable true
par SingleCell_Standalone.ue[14].ipv4.routingTable typename "\"inet.networklayer.ipv4.Ipv4RoutingTable\""
par SingleCell_Standalone.ue[14].ipv4.routingTable interfaceTableModule "\"SingleCell_Standalone.ue[14].interfaceTable\""
par SingleCell_Standalone.ue[14].ipv4.routingTable routerId "\"auto\""
par SingleCell_Standalone.ue[14].ipv4.routingTable netmaskRoutes "\"*\""
par SingleCell_Standalone.ue[14].ipv4.routingTable forwarding false
par SingleCell_Standalone.ue[14].ipv4.routingTable multicastForwarding false
par SingleCell_Standalone.ue[14].ipv4.routingTable useAdminDist false
par SingleCell_Standalone.ue[14].ipv4.routingTable routingFile "\"\""
par SingleCell_Standalone.ue[14].ipv4.natTable typename "\"inet.networklayer.ipv4.Ipv4NatTable\""
par SingleCell_Standalone.ue[14].ipv4.natTable networkProtocolModule "\"^.ip\""
par SingleCell_Standalone.ue[14].ipv4.natTable config "<config/> at content:1"
par SingleCell_Standalone.ue[14].ipv4.up typename "\"inet.common.MessageDispatcher\""
par SingleCell_Standalone.ue[14].ipv4.up displayStringTextFormat "\"processed %p pk (%l)\""
par SingleCell_Standalone.ue[14].ipv4.up forwardServiceRegistration true
par SingleCell_Standalone.ue[14].ipv4.up forwardProtocolRegistration true
par SingleCell_Standalone.ue[14].ipv4.igmp typename "\"inet.networklayer.ipv4.Igmpv2\""
par SingleCell_Standalone.ue[14].ipv4.igmp interfaceTableModule "\"SingleCell_Standalone.ue[14].interfaceTable\""
par SingleCell_Standalone.ue[14].ipv4.igmp routingTableModule "\"SingleCell_Standalone.ue[14].ipv4.routingTable\""
par SingleCell_Standalone.ue[14].ipv4.igmp crcMode "\"declared\""
attr enum declared,computed
par SingleCell_Standalone.ue[14].ipv4.igmp enabled true
par SingleCell_Standalone.ue[14].ipv4.igmp robustnessVariable 2
par SingleCell_Standalone.ue[14].ipv4.igmp queryInterval 125s
attr unit s
par SingleCell_Standalone.ue[14].ipv4.igmp queryResponseInterval 10s
attr unit s
par SingleCell_Standalone.ue[14].ipv4.igmp groupMembershipInterval 260s
attr unit s
par SingleCell_Standalone.ue[14].ipv4.igmp otherQuerierPresentInterval 255s
attr unit s
par SingleCell_Standalone.ue[14].ipv4.igmp startupQueryInterval 31.25s
attr unit s
par SingleCell_Standalone.ue[14].ipv4.igmp startupQueryCount 2
par SingleCell_Standalone.ue[14].ipv4.igmp lastMemberQueryInterval 1s
attr unit s
par SingleCell_Standalone.ue[14].ipv4.igmp lastMemberQueryCount 2
par SingleCell_Standalone.ue[14].ipv4.igmp unsolicitedReportInterval 10s
attr unit s
par SingleCell_Standalone.ue[14].ipv4.icmp typename "\"inet.networklayer.ipv4.Icmp\""
par SingleCell_Standalone.ue[14].ipv4.icmp interfaceTableModule "\"SingleCell_Standalone.ue[14].interfaceTable\""
par SingleCell_Standalone.ue[14].ipv4.icmp routingTableModule "\"SingleCell_Standalone.ue[14].ipv4.routingTable\""
par SingleCell_Standalone.ue[14].ipv4.icmp crcMode "\"declared\""
attr enum declared,computed
attr mutable ""
par SingleCell_Standalone.ue[14].ipv4.icmp quoteLength 8B
attr mutable ""
attr unit B
par SingleCell_Standalone.ue[14].ipv4.mp typename "\"inet.common.MessageDispatcher\""
par SingleCell_Standalone.ue[14].ipv4.mp displayStringTextFormat "\"processed %p pk (%l)\""
par SingleCell_Standalone.ue[14].ipv4.mp forwardServiceRegistration true
par SingleCell_Standalone.ue[14].ipv4.mp forwardProtocolRegistration true
par SingleCell_Standalone.ue[14].ipv4.ip typename "\"inet.networklayer.ipv4.Ipv4\""
par SingleCell_Standalone.ue[14].ipv4.ip interfaceTableModule "\"SingleCell_Standalone.ue[14].interfaceTable\""
par SingleCell_Standalone.ue[14].ipv4.ip routingTableModule "\"SingleCell_Standalone.ue[14].ipv4.routingTable\""
par SingleCell_Standalone.ue[14].ipv4.ip arpModule "\"SingleCell_Standalone.ue[14].ipv4.arp\""
par SingleCell_Standalone.ue[14].ipv4.ip icmpModule "\"SingleCell_Standalone.ue[14].ipv4.icmp\""
par SingleCell_Standalone.ue[14].ipv4.ip crcMode "\"declared\""
attr enum declared,computed
par SingleCell_Standalone.ue[14].ipv4.ip timeToLive 32
par SingleCell_Standalone.ue[14].ipv4.ip multicastTimeToLive 32
par SingleCell_Standalone.ue[14].ipv4.ip fragmentTimeout 60s
attr unit s
par SingleCell_Standalone.ue[14].ipv4.ip limitedBroadcast false
par SingleCell_Standalone.ue[14].ipv4.ip directBroadcastInterfaces "\"\""
scalar SingleCell_Standalone.ue[14].ipv4.ip packetDropAddressResolutionFailed:count 0
attr interpolationmode none
attr recordingmode count
attr source packetDropReasonIsAddressResolutionFailed(packetDropped)
attr title "packet drop: address resolution failed, count"
scalar SingleCell_Standalone.ue[14].ipv4.ip packetDropAddressResolutionFailed:sum(packetBytes) 0
attr interpolationmode none
attr recordingmode sum(packetBytes)
attr source packetDropReasonIsAddressResolutionFailed(packetDropped)
attr title "packet drop: address resolution failed, sum(packetBytes)"
scalar SingleCell_Standalone.ue[14].ipv4.ip packetDropHopLimitReached:count 0
attr interpolationmode none
attr recordingmode count
attr source packetDropReasonIsHopLimitReached(packetDropped)
attr title "packet drop: hop limit reached, count"
scalar SingleCell_Standalone.ue[14].ipv4.ip packetDropHopLimitReached:sum(packetBytes) 0
attr interpolationmode none
attr recordingmode sum(packetBytes)
attr source packetDropReasonIsHopLimitReached(packetDropped)
attr title "packet drop: hop limit reached, sum(packetBytes)"
scalar SingleCell_Standalone.ue[14].ipv4.ip packetDropForwardingDisabled:count 0
attr interpolationmode none
attr recordingmode count
attr source packetDropReasonIsForwardingDisabled(packetDropped)
attr title "packet drop: forwarding disabled, count"
scalar SingleCell_Standalone.ue[14].ipv4.ip packetDropForwardingDisabled:sum(packetBytes) 0
attr interpolationmode none
attr recordingmode sum(packetBytes)
attr source packetDropReasonIsForwardingDisabled(packetDropped)
attr title "packet drop: forwarding disabled, sum(packetBytes)"
scalar SingleCell_Standalone.ue[14].ipv4.ip packetDropNoInterfaceFound:count 0
attr interpolationmode none
attr recordingmode count
attr source packetDropReasonIsNoInterfaceFound(packetDropped)
attr title "packet drop: no interface found, count"
scalar SingleCell_Standalone.ue[14].ipv4.ip packetDropNoInterfaceFound:sum(packetBytes) 0
attr interpolationmode none
attr recordingmode sum(packetBytes)
attr source packetDropReasonIsNoInterfaceFound(packetDropped)
attr title "packet drop: no interface found, sum(packetBytes)"
scalar SingleCell_Standalone.ue[14].ipv4.ip packetDropNoRouteFound:count 0
attr interpolationmode none
attr recordingmode count
attr source packetDropReasonIsNoRouteFound(packetDropped)
attr title "packet drop: no route found, count"
scalar SingleCell_Standalone.ue[14].ipv4.ip packetDropNoRouteFound:sum(packetBytes) 0
attr interpolationmode none
attr recordingmode sum(packetBytes)
attr source packetDropReasonIsNoRouteFound(packetDropped)
attr title "packet drop: no route found, sum(packetBytes)"
scalar SingleCell_Standalone.ue[14].ipv4.ip packetDropUndefined:count 0
attr interpolationmode none
attr recordingmode count
attr source packetDropReasonIsUndefined(packetDropped)
attr title "packet drop: undefined, count"
scalar SingleCell_Standalone.ue[14].ipv4.ip packetDropUndefined:sum(packetBytes) 0
attr interpolationmode none
attr recordingmode sum(packetBytes)
attr source packetDropReasonIsUndefined(packetDropped)
attr title "packet drop: undefined, sum(packetBytes)"
par SingleCell_Standalone.ue[14].ipv4.arp typename "\"inet.networklayer.arp.ipv4.Arp\""
par SingleCell_Standalone.ue[14].ipv4.arp interfaceTableModule "\"SingleCell_Standalone.ue[14].interfaceTable\""
par SingleCell_Standalone.ue[14].ipv4.arp routingTableModule "\"SingleCell_Standalone.ue[14].ipv4.routingTable\""
par SingleCell_Standalone.ue[14].ipv4.arp retryTimeout 1s
attr unit s
par SingleCell_Standalone.ue[14].ipv4.arp retryCount 3
par SingleCell_Standalone.ue[14].ipv4.arp cacheTimeout 120s
attr unit s
par SingleCell_Standalone.ue[14].ipv4.arp proxyArpInterfaces "\"*\""
scalar SingleCell_Standalone.ue[14].ipv4.arp arpReplySent:count 0
attr recordingmode count
attr source arpReplySent
attr title "ARP replies sent, count"
scalar SingleCell_Standalone.ue[14].ipv4.arp arpReplySent:sum(packetBytes) 0
attr recordingmode sum(packetBytes)
attr source arpReplySent
attr title "ARP replies sent, sum(packetBytes)"
scalar SingleCell_Standalone.ue[14].ipv4.arp arpRequestSent:count 0
attr recordingmode count
attr source arpRequestSent
attr title "ARP request sent, count"
scalar SingleCell_Standalone.ue[14].ipv4.arp arpRequestSent:sum(packetBytes) 0
attr recordingmode sum(packetBytes)
attr source arpRequestSent
attr title "ARP request sent, sum(packetBytes)"
scalar SingleCell_Standalone.ue[14].ipv4.arp arpResolutionFailed:count 0
attr recordingmode count
attr title "ARP failed resolutions, count"
scalar SingleCell_Standalone.ue[14].ipv4.arp arpResolutionCompleted:count 0
attr recordingmode count
attr title "ARP completed resolutions, count"
scalar SingleCell_Standalone.ue[14].ipv4.arp arpResolutionInitiated:count 0
attr recordingmode count
attr title "ARP initiated resolutions, count"
par SingleCell_Standalone.ue[14].ipv4.lp typename "\"inet.common.MessageDispatcher\""
par SingleCell_Standalone.ue[14].ipv4.lp displayStringTextFormat "\"processed %p pk (%l)\""
par SingleCell_Standalone.ue[14].ipv4.lp forwardServiceRegistration true
par SingleCell_Standalone.ue[14].ipv4.lp forwardProtocolRegistration true
par SingleCell_Standalone.ue[14].ipv4 typename "\"inet.networklayer.ipv4.Ipv4NetworkLayer\""
par SingleCell_Standalone.ue[14].ipv4 forwarding false
par SingleCell_Standalone.ue[14].ipv4 multicastForwarding false
par SingleCell_Standalone.ue[14].ipv4 interfaceTableModule "\"SingleCell_Standalone.ue[14].interfaceTable\""
par SingleCell_Standalone.ue[14].ipv4 displayStringTextFormat "\"%i\""
par SingleCell_Standalone.ue[14].udp typename "\"inet.transportlayer.udp.Udp\""
par SingleCell_Standalone.ue[14].udp interfaceTableModule "\"SingleCell_Standalone.ue[14].interfaceTable\""
par SingleCell_Standalone.ue[14].udp icmpModule "\"^.ipv4.icmp\""
par SingleCell_Standalone.ue[14].udp icmpv6Module "\"^.ipv6.icmpv6\""
par SingleCell_Standalone.ue[14].udp crcMode "\"declared\""
attr enum disabled,declared,computed
par SingleCell_Standalone.ue[14].udp defaultMulticastLoop true
scalar SingleCell_Standalone.ue[14].udp packetReceived:count 900
attr interpolationmode none
attr recordingmode count
attr source packetReceived
attr title "packets received, count"
scalar SingleCell_Standalone.ue[14].udp packetReceived:sum(packetBytes) 907200
attr interpolationmode none
attr recordingmode sum(packetBytes)
attr source packetReceived
attr title "packets received, sum(packetBytes)"
scalar SingleCell_Standalone.ue[14].udp packetSent:count 0
attr interpolationmode none
attr recordingmode count
attr source packetSent
attr title "packets sent, count"
scalar SingleCell_Standalone.ue[14].udp packetSent:sum(packetBytes) 0
attr interpolationmode none
attr recordingmode sum(packetBytes)
attr source packetSent
attr title "packets sent, sum(packetBytes)"
scalar SingleCell_Standalone.ue[14].udp passedUpPk:count 900
attr interpolationmode none
attr recordingmode count
attr source packetSentToUpper
attr title "packets passed up, count"
scalar SingleCell_Standalone.ue[14].udp droppedPkWrongPort:count 0
attr interpolationmode none
attr recordingmode count
attr source packetDropReasonIsNoPortFound(packetDropped)
attr title "packets dropped (wrong port), count"
scalar SingleCell_Standalone.ue[14].udp droppedPkBadChecksum:count 0
attr interpolationmode none
attr recordingmode count
attr source packetDropReasonIsIncorrectlyReceived(packetDropped)
attr title "packets dropped (checksum error), count"
par SingleCell_Standalone.ue[14].tcp typename "\"inet.transportlayer.tcp.Tcp\""
par SingleCell_Standalone.ue[14].tcp crcMode "\"declared\""
attr enum declared,computed
par SingleCell_Standalone.ue[14].tcp advertisedWindow 7504
par SingleCell_Standalone.ue[14].tcp delayedAcksEnabled false
par SingleCell_Standalone.ue[14].tcp nagleEnabled true
par SingleCell_Standalone.ue[14].tcp limitedTransmitEnabled false
par SingleCell_Standalone.ue[14].tcp increasedIWEnabled false
par SingleCell_Standalone.ue[14].tcp sackSupport false
par SingleCell_Standalone.ue[14].tcp windowScalingSupport false
par SingleCell_Standalone.ue[14].tcp windowScalingFactor -1
par SingleCell_Standalone.ue[14].tcp timestampSupport false
par SingleCell_Standalone.ue[14].tcp mss 536
par SingleCell_Standalone.ue[14].tcp msl 120s
attr unit s
par SingleCell_Standalone.ue[14].tcp tcpAlgorithmClass "\"TcpReno\""
attr enum TcpVegas,TcpWestwood,TcpNewReno,TcpReno,TcpTahoe,TcpNoCongestionControl
par SingleCell_Standalone.ue[14].tcp useDataNotification false
par SingleCell_Standalone.ue[14].tcp dupthresh 3
par SingleCell_Standalone.ue[14].tcp initialSsthresh 4294967295
par SingleCell_Standalone.ue[14].tcp stopOperationExtraTime 0s
attr unit s
par SingleCell_Standalone.ue[14].tcp stopOperationTimeout 2s
attr unit s
par SingleCell_Standalone.ue[14].tcp ecnWillingness false
par SingleCell_Standalone.ue[14].tcp dctcpGamma 0.0625
par SingleCell_Standalone.ue[14].app[0] typename "\"simu5g.apps.cbr.CbrReceiver\""
par SingleCell_Standalone.ue[14].app[0] localPort 1000
scalar SingleCell_Standalone.ue[14].app[0] cbrReceivedBytes:timeavg 1000
attr recordingmode timeavg
attr source cbrReceivedBytesSignal
attr title "Bytes received at the application level, timeavg"
attr unit Bps
scalar SingleCell_Standalone.ue[14].app[0] cbrReceivedBytes:mean 1000
attr recordingmode mean
attr source cbrReceivedBytesSignal
attr title "Bytes received at the application level, mean"
attr unit Bps
scalar SingleCell_Standalone.ue[14].app[0] cbrReceivedBytes:sum 900000
attr recordingmode sum
attr source cbrReceivedBytesSignal
attr title "Bytes received at the application level, sum"
attr unit Bps
scalar SingleCell_Standalone.ue[14].app[0] cbrReceivedThroughtput:timeavg nan
attr recordingmode timeavg
attr source cbrReceivedThroughtputSignal
attr title "Throughput received at the application level, timeavg"
attr unit Bps
scalar SingleCell_Standalone.ue[14].app[0] cbrReceivedThroughtput:mean 100000
attr recordingmode mean
attr source cbrReceivedThroughtputSignal
attr title "Throughput received at the application level, mean"
attr unit Bps
scalar SingleCell_Standalone.ue[14].app[0] cbrReceivedThroughtput:sum 100000
attr recordingmode sum
attr source cbrReceivedThroughtputSignal
attr title "Throughput received at the application level, sum"
attr unit Bps
scalar SingleCell_Standalone.ue[14].app[0] cbrJitter:mean nan
attr recordingmode mean
attr source cbrJitterSignal
attr title "Cbr Playout Loss, mean"
attr unit s
scalar SingleCell_Standalone.ue[14].app[0] cbrFrameDelay:mean 0.0062650973872222
attr recordingmode mean
attr source cbrFrameDelaySignal
attr title "Cbr Frame Delay, mean"
attr unit s
scalar SingleCell_Standalone.ue[14].app[0] cbrFrameLoss:mean 0
attr recordingmode mean
attr source cbrFrameLossSignal
attr title "Cbr Frame Loss, mean"
attr unit ratio
par SingleCell_Standalone.ue[14].at typename "\"inet.common.MessageDispatcher\""
par SingleCell_Standalone.ue[14].at displayStringTextFormat "\"processed %p pk (%l)\""
par SingleCell_Standalone.ue[14].at forwardServiceRegistration true
par SingleCell_Standalone.ue[14].at forwardProtocolRegistration true
par SingleCell_Standalone.ue[14].tn typename "\"inet.common.MessageDispatcher\""
par SingleCell_Standalone.ue[14].tn displayStringTextFormat "\"processed %p pk (%l)\""
par SingleCell_Standalone.ue[14].tn forwardServiceRegistration true
par SingleCell_Standalone.ue[14].tn forwardProtocolRegistration true
par SingleCell_Standalone.ue[14].nl typename "\"inet.common.MessageDispatcher\""
par SingleCell_Standalone.ue[14].nl displayStringTextFormat "\"processed %p pk (%l)\""
par SingleCell_Standalone.ue[14].nl forwardServiceRegistration true
par SingleCell_Standalone.ue[14].nl forwardProtocolRegistration true
par SingleCell_Standalone.ue[14] typename "\"simu5g.nodes.NR.NRUe\""
par SingleCell_Standalone.ue[14] numApps 1
par SingleCell_Standalone.ue[14] hasUdp true
par SingleCell_Standalone.ue[14] hasTcp true
par SingleCell_Standalone.ue[14] hasSctp false
par SingleCell_Standalone.ue[14] nodeType "\"UE\""
par SingleCell_Standalone.ue[14] masterId 0
attr mutable ""
par SingleCell_Standalone.ue[14] macNodeId 1039
attr mutable ""
par SingleCell_Standalone.ue[14] macCellId 0
attr mutable ""
par SingleCell_Standalone.ue[14] nicType "\"NRNicUe\""
par SingleCell_Standalone.ue[14] hasIpv4 true
par SingleCell_Standalone.ue[14] hasIpv6 false
par SingleCell_Standalone.ue[14] numEthInterfaces 0
par SingleCell_Standalone.ue[14] extHostAddress "\"\""
par SingleCell_Standalone.ue[14] numLoInterfaces 1
par SingleCell_Standalone.ue[14] numPcapRecorders 0
par SingleCell_Standalone.ue[14] hasRNISupport false
par SingleCell_Standalone.ue[14] nrMasterId 1
attr mutable ""
par SingleCell_Standalone.ue[14] nrMacNodeId 2063
attr mutable ""
par SingleCell_Standalone.ue[14] nrMacCellId 1
attr mutable ""
par SingleCell_Standalone typename "\"simu5g.simulations.NR.networks.SingleCell_Standalone\""
par SingleCell_Standalone numUe 15
par SingleCell_Standalone numBgCells 2

