version 3
run BgTraffic-0-20240517-11:49:41-10168
attr configname BgTraffic
attr datetime 20240517-11:49:41
attr datetimef 20240517-114941
attr experiment BgTraffic
attr inifile omnetpp.ini
attr iterationvars ""
attr iterationvarsd ""
attr iterationvarsf ""
attr measurement ""
attr network simu5g.simulations.NR.networks.SingleCell_Standalone
attr processid 10168
attr repetition 0
attr replication #0
attr resultdir results
attr runnumber 0
attr seedset 0
config image-path ../../../images;../../../../INET4.5/images
config extends Single-UE
config *.numBgCells 1
config *.bgCell[*].bgScheduler.isNr true
config *.bgCell[*].bgScheduler.txPower 23
config *.bgCell[*].mobility.initialX 750m
config *.bgCell[*].mobility.initialY 1000m
config *.bgCell[*].bgTrafficGenerator.numBgUes 10
config *.bgCell[*].bgTrafficGenerator.bgUE[*].mobility.initialX uniform(500m,1000m)
config *.bgCell[*].bgTrafficGenerator.bgUE[*].mobility.initialY uniform(500m,1000m)
config *.bgCell[*].bgTrafficGenerator.bgUE[*].trafficGeneratorType "\"TrafficGeneratorCbr\""
config *.bgCell[*].bgTrafficGenerator.bgUE[*].generator.startTimeDl uniform(0s,0.05s)
config *.bgCell[*].bgTrafficGenerator.bgUE[*].generator.packetSizeDl 1000B
config *.bgCell[*].bgTrafficGenerator.bgUE[*].generator.periodDl 0.01s
config *.gnb.mobility.initialX 500m
config *.gnb.mobility.initialY 500m
config *.numUe 1
config *.ue[*].mobility.initialX 500m
config *.ue[*].mobility.initialY 900m
config *.ue[*].macCellId 0
config *.ue[*].masterId 0
config *.ue[*].nrMacCellId 1
config *.ue[*].nrMasterId 1
config *.ue[*].numApps 1
config *.server.numApps 1
config *.ue[*].app[*].typename CbrReceiver
config *.ue[*].app[*].localPort 1000
config *.server.app[*].typename CbrSender
config *.server.app[*].PacketSize 1000
config *.server.app[*].sampling_time 0.01s
config *.server.app[*].destAddress "\"ue[\"+string(ancestorIndex(0))+\"]\""
config *.server.app[*].destPort 1000
config *.server.app[*].localPort 3088+ancestorIndex(0)
config *.server.app[*].startTime uniform(0.01s,0.05s)
config output-scalar-file-append false
config network simu5g.simulations.NR.networks.SingleCell_Standalone
config sim-time-limit 10s
config warmup-period 1s
config seed-set 0
config output-scalar-file results/BgTraffic/0.sca
config output-vector-file results/BgTraffic/0.vec
config **.routingRecorder.enabled false
config **.amcType "\"NRAmc\""
config **.targetBler 0.01
config **.blerShift 5
config *.configurator.config "xmldoc(\"./demo.xml\")"
config **.mobility.constraintAreaMaxX 1000m
config **.mobility.constraintAreaMaxY 1000m
config **.mobility.constraintAreaMinX 0m
config **.mobility.constraintAreaMinY 0m
config **.mobility.constraintAreaMinZ 0m
config **.mobility.constraintAreaMaxZ 0m
config **.mobility.initFromDisplayString false

vector 0 SingleCell_Standalone.server.ppp[0].queue queueLength:vector ETV
attr autoWarmupFilter false
attr interpolationmode sample-hold
attr recordingmode vector
attr source "warmup(atomic(constant0(packetPushEnded) + count(packetPushStarted) - count(packetPulled) - count(packetRemoved) - count(packetDropped)))"
attr title "queue length"
attr unit pk
vector 1 SingleCell_Standalone.server.ppp[0].queue queueBitLength:vector ETV
attr autoWarmupFilter false
attr interpolationmode sample-hold
attr recordingmode vector
attr source "warmup(atomic(constant0(packetPushEnded) + sum(packetLength(packetPushStarted)) - sum(packetLength(packetPulled)) - sum(packetLength(packetRemoved)) - sum(packetLength(packetDropped))))"
attr title "queue bit length"
attr unit b
vector 2 SingleCell_Standalone.server.udp passedUpPk:vector(count) ETV
attr interpolationmode none
attr recordingmode vector(count)
attr source packetSentToUpper
attr title "packets passed up, count"
vector 3 SingleCell_Standalone.server.udp droppedPkWrongPort:vector(count) ETV
attr interpolationmode none
attr recordingmode vector(count)
attr source packetDropReasonIsNoPortFound(packetDropped)
attr title "packets dropped (wrong port), count"
vector 4 SingleCell_Standalone.server.udp droppedPkBadChecksum:vector(count) ETV
attr interpolationmode none
attr recordingmode vector(count)
attr source packetDropReasonIsIncorrectlyReceived(packetDropped)
attr title "packets dropped (checksum error), count"
vector 5 SingleCell_Standalone.router.ppp[0].queue queueLength:vector ETV
attr autoWarmupFilter false
attr interpolationmode sample-hold
attr recordingmode vector
attr source "warmup(atomic(constant0(packetPushEnded) + count(packetPushStarted) - count(packetPulled) - count(packetRemoved) - count(packetDropped)))"
attr title "queue length"
attr unit pk
vector 6 SingleCell_Standalone.router.ppp[0].queue queueBitLength:vector ETV
attr autoWarmupFilter false
attr interpolationmode sample-hold
attr recordingmode vector
attr source "warmup(atomic(constant0(packetPushEnded) + sum(packetLength(packetPushStarted)) - sum(packetLength(packetPulled)) - sum(packetLength(packetRemoved)) - sum(packetLength(packetDropped))))"
attr title "queue bit length"
attr unit b
vector 7 SingleCell_Standalone.router.ppp[1].queue queueLength:vector ETV
attr autoWarmupFilter false
attr interpolationmode sample-hold
attr recordingmode vector
attr source "warmup(atomic(constant0(packetPushEnded) + count(packetPushStarted) - count(packetPulled) - count(packetRemoved) - count(packetDropped)))"
attr title "queue length"
attr unit pk
vector 8 SingleCell_Standalone.router.ppp[1].queue queueBitLength:vector ETV
attr autoWarmupFilter false
attr interpolationmode sample-hold
attr recordingmode vector
attr source "warmup(atomic(constant0(packetPushEnded) + sum(packetLength(packetPushStarted)) - sum(packetLength(packetPulled)) - sum(packetLength(packetRemoved)) - sum(packetLength(packetDropped))))"
attr title "queue bit length"
attr unit b
vector 9 SingleCell_Standalone.upf.ppp[0].queue queueLength:vector ETV
attr autoWarmupFilter false
attr interpolationmode sample-hold
attr recordingmode vector
attr source "warmup(atomic(constant0(packetPushEnded) + count(packetPushStarted) - count(packetPulled) - count(packetRemoved) - count(packetDropped)))"
attr title "queue length"
attr unit pk
vector 10 SingleCell_Standalone.upf.ppp[0].queue queueBitLength:vector ETV
attr autoWarmupFilter false
attr interpolationmode sample-hold
attr recordingmode vector
attr source "warmup(atomic(constant0(packetPushEnded) + sum(packetLength(packetPushStarted)) - sum(packetLength(packetPulled)) - sum(packetLength(packetRemoved)) - sum(packetLength(packetDropped))))"
attr title "queue bit length"
attr unit b
vector 11 SingleCell_Standalone.upf.pppIf.queue queueLength:vector ETV
attr autoWarmupFilter false
attr interpolationmode sample-hold
attr recordingmode vector
attr source "warmup(atomic(constant0(packetPushEnded) + count(packetPushStarted) - count(packetPulled) - count(packetRemoved) - count(packetDropped)))"
attr title "queue length"
attr unit pk
vector 12 SingleCell_Standalone.upf.pppIf.queue queueBitLength:vector ETV
attr autoWarmupFilter false
attr interpolationmode sample-hold
attr recordingmode vector
attr source "warmup(atomic(constant0(packetPushEnded) + sum(packetLength(packetPushStarted)) - sum(packetLength(packetPulled)) - sum(packetLength(packetRemoved)) - sum(packetLength(packetDropped))))"
attr title "queue bit length"
attr unit b
vector 13 SingleCell_Standalone.upf.udp passedUpPk:vector(count) ETV
attr interpolationmode none
attr recordingmode vector(count)
attr source packetSentToUpper
attr title "packets passed up, count"
vector 14 SingleCell_Standalone.upf.udp droppedPkWrongPort:vector(count) ETV
attr interpolationmode none
attr recordingmode vector(count)
attr source packetDropReasonIsNoPortFound(packetDropped)
attr title "packets dropped (wrong port), count"
vector 15 SingleCell_Standalone.upf.udp droppedPkBadChecksum:vector(count) ETV
attr interpolationmode none
attr recordingmode vector(count)
attr source packetDropReasonIsIncorrectlyReceived(packetDropped)
attr title "packets dropped (checksum error), count"
vector 16 SingleCell_Standalone.iUpf.ppp[0].queue queueLength:vector ETV
attr autoWarmupFilter false
attr interpolationmode sample-hold
attr recordingmode vector
attr source "warmup(atomic(constant0(packetPushEnded) + count(packetPushStarted) - count(packetPulled) - count(packetRemoved) - count(packetDropped)))"
attr title "queue length"
attr unit pk
vector 17 SingleCell_Standalone.iUpf.ppp[0].queue queueBitLength:vector ETV
attr autoWarmupFilter false
attr interpolationmode sample-hold
attr recordingmode vector
attr source "warmup(atomic(constant0(packetPushEnded) + sum(packetLength(packetPushStarted)) - sum(packetLength(packetPulled)) - sum(packetLength(packetRemoved)) - sum(packetLength(packetDropped))))"
attr title "queue bit length"
attr unit b
vector 18 SingleCell_Standalone.iUpf.ppp[1].queue queueLength:vector ETV
attr autoWarmupFilter false
attr interpolationmode sample-hold
attr recordingmode vector
attr source "warmup(atomic(constant0(packetPushEnded) + count(packetPushStarted) - count(packetPulled) - count(packetRemoved) - count(packetDropped)))"
attr title "queue length"
attr unit pk
vector 19 SingleCell_Standalone.iUpf.ppp[1].queue queueBitLength:vector ETV
attr autoWarmupFilter false
attr interpolationmode sample-hold
attr recordingmode vector
attr source "warmup(atomic(constant0(packetPushEnded) + sum(packetLength(packetPushStarted)) - sum(packetLength(packetPulled)) - sum(packetLength(packetRemoved)) - sum(packetLength(packetDropped))))"
attr title "queue bit length"
attr unit b
vector 20 SingleCell_Standalone.iUpf.pppIf.queue queueLength:vector ETV
attr autoWarmupFilter false
attr interpolationmode sample-hold
attr recordingmode vector
attr source "warmup(atomic(constant0(packetPushEnded) + count(packetPushStarted) - count(packetPulled) - count(packetRemoved) - count(packetDropped)))"
attr title "queue length"
attr unit pk
vector 21 SingleCell_Standalone.iUpf.pppIf.queue queueBitLength:vector ETV
attr autoWarmupFilter false
attr interpolationmode sample-hold
attr recordingmode vector
attr source "warmup(atomic(constant0(packetPushEnded) + sum(packetLength(packetPushStarted)) - sum(packetLength(packetPulled)) - sum(packetLength(packetRemoved)) - sum(packetLength(packetDropped))))"
attr title "queue bit length"
attr unit b
vector 22 SingleCell_Standalone.iUpf.udp passedUpPk:vector(count) ETV
attr interpolationmode none
attr recordingmode vector(count)
attr source packetSentToUpper
attr title "packets passed up, count"
vector 23 SingleCell_Standalone.iUpf.udp droppedPkWrongPort:vector(count) ETV
attr interpolationmode none
attr recordingmode vector(count)
attr source packetDropReasonIsNoPortFound(packetDropped)
attr title "packets dropped (wrong port), count"
vector 24 SingleCell_Standalone.iUpf.udp droppedPkBadChecksum:vector(count) ETV
attr interpolationmode none
attr recordingmode vector(count)
attr source packetDropReasonIsIncorrectlyReceived(packetDropped)
attr title "packets dropped (checksum error), count"
vector 25 SingleCell_Standalone.gnb.pppIf.queue queueLength:vector ETV
attr autoWarmupFilter false
attr interpolationmode sample-hold
attr recordingmode vector
attr source "warmup(atomic(constant0(packetPushEnded) + count(packetPushStarted) - count(packetPulled) - count(packetRemoved) - count(packetDropped)))"
attr title "queue length"
attr unit pk
vector 26 SingleCell_Standalone.gnb.pppIf.queue queueBitLength:vector ETV
attr autoWarmupFilter false
attr interpolationmode sample-hold
attr recordingmode vector
attr source "warmup(atomic(constant0(packetPushEnded) + sum(packetLength(packetPushStarted)) - sum(packetLength(packetPulled)) - sum(packetLength(packetRemoved)) - sum(packetLength(packetDropped))))"
attr title "queue bit length"
attr unit b
vector 27 SingleCell_Standalone.gnb.pppMEHostIf.queue queueLength:vector ETV
attr autoWarmupFilter false
attr interpolationmode sample-hold
attr recordingmode vector
attr source "warmup(atomic(constant0(packetPushEnded) + count(packetPushStarted) - count(packetPulled) - count(packetRemoved) - count(packetDropped)))"
attr title "queue length"
attr unit pk
vector 28 SingleCell_Standalone.gnb.pppMEHostIf.queue queueBitLength:vector ETV
attr autoWarmupFilter false
attr interpolationmode sample-hold
attr recordingmode vector
attr source "warmup(atomic(constant0(packetPushEnded) + sum(packetLength(packetPushStarted)) - sum(packetLength(packetPulled)) - sum(packetLength(packetRemoved)) - sum(packetLength(packetDropped))))"
attr title "queue bit length"
attr unit b
vector 29 SingleCell_Standalone.gnb.udp passedUpPk:vector(count) ETV
attr interpolationmode none
attr recordingmode vector(count)
attr source packetSentToUpper
attr title "packets passed up, count"
vector 30 SingleCell_Standalone.gnb.udp droppedPkWrongPort:vector(count) ETV
attr interpolationmode none
attr recordingmode vector(count)
attr source packetDropReasonIsNoPortFound(packetDropped)
attr title "packets dropped (wrong port), count"
vector 31 SingleCell_Standalone.gnb.udp droppedPkBadChecksum:vector(count) ETV
attr interpolationmode none
attr recordingmode vector(count)
attr source packetDropReasonIsIncorrectlyReceived(packetDropped)
attr title "packets dropped (checksum error), count"
vector 32 SingleCell_Standalone.ue[0].udp passedUpPk:vector(count) ETV
attr interpolationmode none
attr recordingmode vector(count)
attr source packetSentToUpper
attr title "packets passed up, count"
vector 33 SingleCell_Standalone.ue[0].udp droppedPkWrongPort:vector(count) ETV
attr interpolationmode none
attr recordingmode vector(count)
attr source packetDropReasonIsNoPortFound(packetDropped)
attr title "packets dropped (wrong port), count"
vector 34 SingleCell_Standalone.ue[0].udp droppedPkBadChecksum:vector(count) ETV
attr interpolationmode none
attr recordingmode vector(count)
attr source packetDropReasonIsIncorrectlyReceived(packetDropped)
attr title "packets dropped (checksum error), count"
vector 35 SingleCell_Standalone.bgCell[0].bgScheduler bgAvgServedBlocksUl:vector ETV
attr recordingmode vector
attr source bgAvgServedBlocksUl
attr title "Average UL served blocks for background cells"
attr unit ""
vector 36 SingleCell_Standalone.bgCell[0].bgTrafficGenerator.bgUE[2].generator bgAverageCqiDl:vector ETV
attr recordingmode vector
attr source bgAverageCqiDl
attr title "Average DL CQI for background UEs"
attr unit ""
vector 37 SingleCell_Standalone.bgCell[0].bgTrafficGenerator.bgUE[2].generator bgHarqErrorRateDl:vector ETV
attr recordingmode vector
attr source bgHarqErrorRateDl
attr title "Average DL HARQ error rate for background UEs"
attr unit ""
vector 38 SingleCell_Standalone.bgCell[0].bgTrafficGenerator.bgUE[1].generator bgAverageCqiDl:vector ETV
attr recordingmode vector
attr source bgAverageCqiDl
attr title "Average DL CQI for background UEs"
attr unit ""
vector 39 SingleCell_Standalone.bgCell[0].bgTrafficGenerator.bgUE[1].generator bgHarqErrorRateDl:vector ETV
attr recordingmode vector
attr source bgHarqErrorRateDl
attr title "Average DL HARQ error rate for background UEs"
attr unit ""
vector 40 SingleCell_Standalone.bgCell[0].bgTrafficGenerator.bgUE[4].generator bgAverageCqiDl:vector ETV
attr recordingmode vector
attr source bgAverageCqiDl
attr title "Average DL CQI for background UEs"
attr unit ""
vector 41 SingleCell_Standalone.bgCell[0].bgTrafficGenerator.bgUE[4].generator bgHarqErrorRateDl:vector ETV
attr recordingmode vector
attr source bgHarqErrorRateDl
attr title "Average DL HARQ error rate for background UEs"
attr unit ""
vector 42 SingleCell_Standalone.bgCell[0].bgScheduler bgAvgServedBlocksDl:vector ETV
attr recordingmode vector
attr source bgAvgServedBlocksDl
attr title "Average DL served blocks for background cells"
attr unit ""
vector 43 SingleCell_Standalone.gnb.cellularNic.mac avgServedBlocksUl:vector ETV
attr recordingmode vector
attr source avgServedBlocksUl
attr title "Avg Served Blocks Ul"
attr unit blocks
vector 44 SingleCell_Standalone.gnb.cellularNic.mac avgServedBlocksDl:vector ETV
attr recordingmode vector
attr source avgServedBlocksDl
attr title "Avg Served Blocks Dl"
attr unit blocks
vector 45 SingleCell_Standalone.bgCell[0].bgTrafficGenerator.bgUE[0].generator bgMeasuredSinrDl:vector ETV
attr recordingmode vector
attr source bgMeasuredSinrDl
attr title "Average DL SINR for background UEs"
attr unit ""
vector 46 SingleCell_Standalone.bgCell[0].bgTrafficGenerator.bgUE[1].generator bgMeasuredSinrDl:vector ETV
attr recordingmode vector
attr source bgMeasuredSinrDl
attr title "Average DL SINR for background UEs"
attr unit ""
vector 47 SingleCell_Standalone.bgCell[0].bgTrafficGenerator.bgUE[2].generator bgMeasuredSinrDl:vector ETV
attr recordingmode vector
attr source bgMeasuredSinrDl
attr title "Average DL SINR for background UEs"
attr unit ""
vector 48 SingleCell_Standalone.bgCell[0].bgTrafficGenerator.bgUE[3].generator bgMeasuredSinrDl:vector ETV
attr recordingmode vector
attr source bgMeasuredSinrDl
attr title "Average DL SINR for background UEs"
attr unit ""
vector 49 SingleCell_Standalone.bgCell[0].bgTrafficGenerator.bgUE[4].generator bgMeasuredSinrDl:vector ETV
attr recordingmode vector
attr source bgMeasuredSinrDl
attr title "Average DL SINR for background UEs"
attr unit ""
vector 50 SingleCell_Standalone.bgCell[0].bgTrafficGenerator.bgUE[5].generator bgMeasuredSinrDl:vector ETV
attr recordingmode vector
attr source bgMeasuredSinrDl
attr title "Average DL SINR for background UEs"
attr unit ""
vector 51 SingleCell_Standalone.bgCell[0].bgTrafficGenerator.bgUE[6].generator bgMeasuredSinrDl:vector ETV
attr recordingmode vector
attr source bgMeasuredSinrDl
attr title "Average DL SINR for background UEs"
attr unit ""
vector 52 SingleCell_Standalone.bgCell[0].bgTrafficGenerator.bgUE[7].generator bgMeasuredSinrDl:vector ETV
attr recordingmode vector
attr source bgMeasuredSinrDl
attr title "Average DL SINR for background UEs"
attr unit ""
vector 53 SingleCell_Standalone.bgCell[0].bgTrafficGenerator.bgUE[8].generator bgMeasuredSinrDl:vector ETV
attr recordingmode vector
attr source bgMeasuredSinrDl
attr title "Average DL SINR for background UEs"
attr unit ""
vector 54 SingleCell_Standalone.bgCell[0].bgTrafficGenerator.bgUE[9].generator bgMeasuredSinrDl:vector ETV
attr recordingmode vector
attr source bgMeasuredSinrDl
attr title "Average DL SINR for background UEs"
attr unit ""
vector 55 SingleCell_Standalone.server.udp packetSent:vector(packetBytes) ETV
attr interpolationmode none
attr recordingmode vector(packetBytes)
attr source packetSent
attr title "packets sent, packetBytes"
vector 56 SingleCell_Standalone.server.ppp[0].queue incomingPacketLengths:vector ETV
attr interpolationmode none
attr recordingmode vector
attr source packetLength(packetPushStarted)
attr title "incoming packet lengths"
attr unit b
vector 57 SingleCell_Standalone.server.ppp[0].queue incomingDataRate:vector ETV
attr interpolationmode linear
attr recordingmode vector
attr source throughput(packetPushStarted)
attr title "incoming datarate"
attr unit bps
vector 58 SingleCell_Standalone.server.ppp[0].queue queueingTime:vector ETV
attr interpolationmode none
attr recordingmode vector
attr source queueingTime(packetPulled)
attr title "queueing times"
attr unit s
vector 59 SingleCell_Standalone.server.ppp[0].queue outgoingPacketLengths:vector ETV
attr interpolationmode none
attr recordingmode vector
attr source packetLength(packetPulled)
attr title "outgoing packet lengths"
attr unit b
vector 60 SingleCell_Standalone.server.ppp[0].queue outgoingDataRate:vector ETV
attr interpolationmode linear
attr recordingmode vector
attr source throughput(packetPulled)
attr title "outgoing datarate"
attr unit bps
vector 61 SingleCell_Standalone.server.ppp[0].ppp rcvdPkFromHl:vector(packetBytes) ETV
attr interpolationmode none
attr recordingmode vector(packetBytes)
attr source packetReceivedFromUpper
attr title "packets received from higher layer, packetBytes"
vector 62 SingleCell_Standalone.server.ppp[0].ppp transmissionState:vector ETV
attr interpolationmode sample-hold
attr recordingmode vector
attr source transmissionStateChanged
attr title "tx state"
vector 63 SingleCell_Standalone.server.ppp[0].ppp txPk:vector(packetBytes) ETV
attr interpolationmode none
attr recordingmode vector(packetBytes)
attr source packetSentToLower
attr title "packets transmitted, packetBytes"
vector 64 SingleCell_Standalone.router.ppp[0].ppp rxPkOk:vector(packetBytes) ETV
attr interpolationmode none
attr recordingmode vector(packetBytes)
attr source rxPkOk
attr title "packets received OK, packetBytes"
vector 65 SingleCell_Standalone.router.ppp[0].ppp passedUpPk:vector(packetBytes) ETV
attr interpolationmode none
attr recordingmode vector(packetBytes)
attr source packetSentToUpper
attr title "packets passed to higher layer, packetBytes"
vector 66 SingleCell_Standalone.router.ppp[1].queue incomingPacketLengths:vector ETV
attr interpolationmode none
attr recordingmode vector
attr source packetLength(packetPushStarted)
attr title "incoming packet lengths"
attr unit b
vector 67 SingleCell_Standalone.router.ppp[1].queue incomingDataRate:vector ETV
attr interpolationmode linear
attr recordingmode vector
attr source throughput(packetPushStarted)
attr title "incoming datarate"
attr unit bps
vector 68 SingleCell_Standalone.router.ppp[1].queue queueingTime:vector ETV
attr interpolationmode none
attr recordingmode vector
attr source queueingTime(packetPulled)
attr title "queueing times"
attr unit s
vector 69 SingleCell_Standalone.router.ppp[1].queue outgoingPacketLengths:vector ETV
attr interpolationmode none
attr recordingmode vector
attr source packetLength(packetPulled)
attr title "outgoing packet lengths"
attr unit b
vector 70 SingleCell_Standalone.router.ppp[1].queue outgoingDataRate:vector ETV
attr interpolationmode linear
attr recordingmode vector
attr source throughput(packetPulled)
attr title "outgoing datarate"
attr unit bps
vector 71 SingleCell_Standalone.router.ppp[1].ppp rcvdPkFromHl:vector(packetBytes) ETV
attr interpolationmode none
attr recordingmode vector(packetBytes)
attr source packetReceivedFromUpper
attr title "packets received from higher layer, packetBytes"
vector 72 SingleCell_Standalone.router.ppp[1].ppp transmissionState:vector ETV
attr interpolationmode sample-hold
attr recordingmode vector
attr source transmissionStateChanged
attr title "tx state"
vector 73 SingleCell_Standalone.router.ppp[1].ppp txPk:vector(packetBytes) ETV
attr interpolationmode none
attr recordingmode vector(packetBytes)
attr source packetSentToLower
attr title "packets transmitted, packetBytes"
vector 74 SingleCell_Standalone.upf.pppIf.ppp rxPkOk:vector(packetBytes) ETV
attr interpolationmode none
attr recordingmode vector(packetBytes)
attr source rxPkOk
attr title "packets received OK, packetBytes"
vector 75 SingleCell_Standalone.upf.pppIf.ppp passedUpPk:vector(packetBytes) ETV
attr interpolationmode none
attr recordingmode vector(packetBytes)
attr source packetSentToUpper
attr title "packets passed to higher layer, packetBytes"
vector 76 SingleCell_Standalone.upf.udp packetSent:vector(packetBytes) ETV
attr interpolationmode none
attr recordingmode vector(packetBytes)
attr source packetSent
attr title "packets sent, packetBytes"
vector 77 SingleCell_Standalone.upf.ppp[0].queue incomingPacketLengths:vector ETV
attr interpolationmode none
attr recordingmode vector
attr source packetLength(packetPushStarted)
attr title "incoming packet lengths"
attr unit b
vector 78 SingleCell_Standalone.upf.ppp[0].queue incomingDataRate:vector ETV
attr interpolationmode linear
attr recordingmode vector
attr source throughput(packetPushStarted)
attr title "incoming datarate"
attr unit bps
vector 79 SingleCell_Standalone.upf.ppp[0].queue queueingTime:vector ETV
attr interpolationmode none
attr recordingmode vector
attr source queueingTime(packetPulled)
attr title "queueing times"
attr unit s
vector 80 SingleCell_Standalone.upf.ppp[0].queue outgoingPacketLengths:vector ETV
attr interpolationmode none
attr recordingmode vector
attr source packetLength(packetPulled)
attr title "outgoing packet lengths"
attr unit b
vector 81 SingleCell_Standalone.upf.ppp[0].queue outgoingDataRate:vector ETV
attr interpolationmode linear
attr recordingmode vector
attr source throughput(packetPulled)
attr title "outgoing datarate"
attr unit bps
vector 82 SingleCell_Standalone.upf.ppp[0].ppp rcvdPkFromHl:vector(packetBytes) ETV
attr interpolationmode none
attr recordingmode vector(packetBytes)
attr source packetReceivedFromUpper
attr title "packets received from higher layer, packetBytes"
vector 83 SingleCell_Standalone.upf.ppp[0].ppp transmissionState:vector ETV
attr interpolationmode sample-hold
attr recordingmode vector
attr source transmissionStateChanged
attr title "tx state"
vector 84 SingleCell_Standalone.upf.ppp[0].ppp txPk:vector(packetBytes) ETV
attr interpolationmode none
attr recordingmode vector(packetBytes)
attr source packetSentToLower
attr title "packets transmitted, packetBytes"
vector 85 SingleCell_Standalone.iUpf.ppp[0].ppp rxPkOk:vector(packetBytes) ETV
attr interpolationmode none
attr recordingmode vector(packetBytes)
attr source rxPkOk
attr title "packets received OK, packetBytes"
vector 86 SingleCell_Standalone.iUpf.ppp[0].ppp passedUpPk:vector(packetBytes) ETV
attr interpolationmode none
attr recordingmode vector(packetBytes)
attr source packetSentToUpper
attr title "packets passed to higher layer, packetBytes"
vector 87 SingleCell_Standalone.iUpf.ppp[1].queue incomingPacketLengths:vector ETV
attr interpolationmode none
attr recordingmode vector
attr source packetLength(packetPushStarted)
attr title "incoming packet lengths"
attr unit b
vector 88 SingleCell_Standalone.iUpf.ppp[1].queue incomingDataRate:vector ETV
attr interpolationmode linear
attr recordingmode vector
attr source throughput(packetPushStarted)
attr title "incoming datarate"
attr unit bps
vector 89 SingleCell_Standalone.iUpf.ppp[1].queue queueingTime:vector ETV
attr interpolationmode none
attr recordingmode vector
attr source queueingTime(packetPulled)
attr title "queueing times"
attr unit s
vector 90 SingleCell_Standalone.iUpf.ppp[1].queue outgoingPacketLengths:vector ETV
attr interpolationmode none
attr recordingmode vector
attr source packetLength(packetPulled)
attr title "outgoing packet lengths"
attr unit b
vector 91 SingleCell_Standalone.iUpf.ppp[1].queue outgoingDataRate:vector ETV
attr interpolationmode linear
attr recordingmode vector
attr source throughput(packetPulled)
attr title "outgoing datarate"
attr unit bps
vector 92 SingleCell_Standalone.iUpf.ppp[1].ppp rcvdPkFromHl:vector(packetBytes) ETV
attr interpolationmode none
attr recordingmode vector(packetBytes)
attr source packetReceivedFromUpper
attr title "packets received from higher layer, packetBytes"
vector 93 SingleCell_Standalone.iUpf.ppp[1].ppp transmissionState:vector ETV
attr interpolationmode sample-hold
attr recordingmode vector
attr source transmissionStateChanged
attr title "tx state"
vector 94 SingleCell_Standalone.iUpf.ppp[1].ppp txPk:vector(packetBytes) ETV
attr interpolationmode none
attr recordingmode vector(packetBytes)
attr source packetSentToLower
attr title "packets transmitted, packetBytes"
vector 95 SingleCell_Standalone.gnb.pppIf.ppp rxPkOk:vector(packetBytes) ETV
attr interpolationmode none
attr recordingmode vector(packetBytes)
attr source rxPkOk
attr title "packets received OK, packetBytes"
vector 96 SingleCell_Standalone.gnb.pppIf.ppp passedUpPk:vector(packetBytes) ETV
attr interpolationmode none
attr recordingmode vector(packetBytes)
attr source packetSentToUpper
attr title "packets passed to higher layer, packetBytes"
vector 97 SingleCell_Standalone.gnb.udp packetReceived:vector(packetBytes) ETV
attr interpolationmode none
attr recordingmode vector(packetBytes)
attr source packetReceived
attr title "packets received, packetBytes"
vector 98 SingleCell_Standalone.gnb.cellularNic.pdcpRrc receivedPacketFromUpperLayer:vector(packetBytes) ETV
attr interpolationmode none
attr recordingmode vector(packetBytes)
attr source receivedPacketFromUpperLayer
vector 99 SingleCell_Standalone.gnb.cellularNic.pdcpRrc sentPacketToLowerLayer:vector(packetBytes) ETV
attr interpolationmode none
attr recordingmode vector(packetBytes)
attr source sentPacketToLowerLayer
vector 100 SingleCell_Standalone.gnb.cellularNic.rlc.um receivedPacketFromUpperLayer:vector(packetBytes) ETV
attr interpolationmode none
attr recordingmode vector(packetBytes)
attr source receivedPacketFromUpperLayer
vector 101 SingleCell_Standalone.gnb.cellularNic.mac receivedPacketFromUpperLayer:vector(packetBytes) ETV
attr interpolationmode none
attr recordingmode vector(packetBytes)
attr source receivedPacketFromUpperLayer
vector 102 SingleCell_Standalone.bgCell[0].bgTrafficGenerator.bgUE[3].generator bgAverageCqiDl:vector ETV
attr recordingmode vector
attr source bgAverageCqiDl
attr title "Average DL CQI for background UEs"
attr unit ""
vector 103 SingleCell_Standalone.bgCell[0].bgTrafficGenerator.bgUE[3].generator bgHarqErrorRateDl:vector ETV
attr recordingmode vector
attr source bgHarqErrorRateDl
attr title "Average DL HARQ error rate for background UEs"
attr unit ""
vector 104 SingleCell_Standalone.gnb.cellularNic.mac sentPacketToUpperLayer:vector(packetBytes) ETV
attr interpolationmode none
attr recordingmode vector(packetBytes)
attr source sentPacketToUpperLayer
vector 105 SingleCell_Standalone.gnb.cellularNic.rlc.um rlcPacketLossDl:vector ETV
attr recordingmode vector
attr source rlcPacketLossDl
attr title "rlc Packet Loss"
attr unit ""
vector 106 SingleCell_Standalone.gnb.cellularNic.rlc.um sentPacketToLowerLayer:vector(packetBytes) ETV
attr interpolationmode none
attr recordingmode vector(packetBytes)
attr source sentPacketToLowerLayer
vector 107 SingleCell_Standalone.gnb.cellularNic.mac sentPacketToLowerLayer:vector(packetBytes) ETV
attr interpolationmode none
attr recordingmode vector(packetBytes)
attr source sentPacketToLowerLayer
vector 108 SingleCell_Standalone.ue[0].cellularNic.nrChannelModel[0] measuredSinrUl:vector ETV
attr recordingmode vector
attr source measuredSinrUl
attr title "SINR measured at feedback computation, UL"
attr unit dB
vector 109 SingleCell_Standalone.ue[0].cellularNic.nrChannelModel[0] measuredSinrDl:vector ETV
attr recordingmode vector
attr source measuredSinrDl
attr title "SINR measured at feedback computation, DL"
attr unit dB
vector 110 SingleCell_Standalone.gnb.cellularNic.mac receivedPacketFromLowerLayer:vector(packetBytes) ETV
attr interpolationmode none
attr recordingmode vector(packetBytes)
attr source receivedPacketFromLowerLayer
vector 111 SingleCell_Standalone.ue[0].cellularNic.nrPhy averageCqiDl:vector ETV
attr recordingmode vector
attr source averageCqiDl
attr title "Average Cqi reported in DL"
attr unit cqi
vector 112 SingleCell_Standalone.ue[0].cellularNic.nrChannelModel[0] distance:vector ETV
attr recordingmode vector
attr source distance
attr title "distance between UE and serving base station"
attr unit meters
vector 113 SingleCell_Standalone.ue[0].cellularNic.nrChannelModel[0] rcvdSinrDl:vector ETV
attr recordingmode vector
attr source rcvdSinrDl
attr title "SINR measured at packet reception, DL"
attr unit dB
vector 114 SingleCell_Standalone.ue[0].cellularNic.nrMac receivedPacketFromLowerLayer:vector(packetBytes) ETV
attr interpolationmode none
attr recordingmode vector(packetBytes)
attr source receivedPacketFromLowerLayer
vector 115 SingleCell_Standalone.ue[0].cellularNic.nrMac sentPacketToLowerLayer:vector(packetBytes) ETV
attr interpolationmode none
attr recordingmode vector(packetBytes)
attr source sentPacketToLowerLayer
vector 116 SingleCell_Standalone.gnb.cellularNic.mac macDelayDl:vector ETV
attr recordingmode vector
attr source macDelayDl
attr title "Delay at the MAC layer UL"
attr unit s
vector 117 SingleCell_Standalone.ue[0].cellularNic.nrMac sentPacketToUpperLayer:vector(packetBytes) ETV
attr interpolationmode none
attr recordingmode vector(packetBytes)
attr source sentPacketToUpperLayer
vector 118 SingleCell_Standalone.ue[0].cellularNic.nrRlc.um receivedPacketFromLowerLayer:vector(packetBytes) ETV
attr interpolationmode none
attr recordingmode vector(packetBytes)
attr source receivedPacketFromLowerLayer
vector 119 SingleCell_Standalone.ue[0].cellularNic.nrRlc.um rlcPduThroughputDl:vector ETV
attr recordingmode vector
attr source rlcPduThroughputDl
attr title "Throughput at the rlc layer DL"
attr unit Bps
vector 120 SingleCell_Standalone.ue[0].cellularNic.nrRlc.um rlcPduDelayDl:vector ETV
attr recordingmode vector
attr source rlcPduDelayDl
attr title "Delay at the rlc layer UL"
attr unit s
vector 121 SingleCell_Standalone.ue[0].cellularNic.nrRlc.um rlcPduPacketLossDl:vector ETV
attr recordingmode vector
attr source rlcPduPacketLossDl
attr title "rlc Packet Loss"
attr unit ""
vector 122 SingleCell_Standalone.bgCell[0].bgTrafficGenerator.bgUE[7].generator bgAverageCqiDl:vector ETV
attr recordingmode vector
attr source bgAverageCqiDl
attr title "Average DL CQI for background UEs"
attr unit ""
vector 123 SingleCell_Standalone.bgCell[0].bgTrafficGenerator.bgUE[7].generator bgHarqErrorRateDl:vector ETV
attr recordingmode vector
attr source bgHarqErrorRateDl
attr title "Average DL HARQ error rate for background UEs"
attr unit ""
vector 124 SingleCell_Standalone.ue[0].cellularNic.nrRlc.um rlcThroughputDl:vector ETV
attr recordingmode vector
attr source rlcThroughputDl
attr title "Throughput at the rlc layer DL"
attr unit Bps
vector 125 SingleCell_Standalone.ue[0].cellularNic.nrRlc.um rlcPacketLossDl:vector ETV
attr recordingmode vector
attr source rlcPacketLossDl
attr title "rlc Packet Loss"
attr unit ""
vector 126 SingleCell_Standalone.ue[0].cellularNic.nrRlc.um rlcPacketLossTotal:vector ETV
attr recordingmode vector
attr source rlcPacketLossTotal
attr title "rlc Packet Loss"
attr unit ""
vector 127 SingleCell_Standalone.ue[0].cellularNic.nrRlc.um rlcDelayDl:vector ETV
attr recordingmode vector
attr source rlcDelayDl
attr title "Delay at the rlc layer DL"
attr unit s
vector 128 SingleCell_Standalone.ue[0].cellularNic.nrRlc.um sentPacketToUpperLayer:vector(packetBytes) ETV
attr interpolationmode none
attr recordingmode vector(packetBytes)
attr source sentPacketToUpperLayer
vector 129 SingleCell_Standalone.ue[0].cellularNic.pdcpRrc receivedPacketFromLowerLayer:vector(packetBytes) ETV
attr interpolationmode none
attr recordingmode vector(packetBytes)
attr source receivedPacketFromLowerLayer
vector 130 SingleCell_Standalone.ue[0].cellularNic.pdcpRrc sentPacketToUpperLayer:vector(packetBytes) ETV
attr interpolationmode none
attr recordingmode vector(packetBytes)
attr source sentPacketToUpperLayer
vector 131 SingleCell_Standalone.ue[0].udp packetReceived:vector(packetBytes) ETV
attr interpolationmode none
attr recordingmode vector(packetBytes)
attr source packetReceived
attr title "packets received, packetBytes"
vector 132 SingleCell_Standalone.ue[0].app[0] cbrReceivedBytes:vector ETV
attr recordingmode vector
attr source cbrReceivedBytesSignal
attr title "Bytes received at the application level"
attr unit Bps
vector 133 SingleCell_Standalone.ue[0].app[0] cbrFrameDelay:vector ETV
attr recordingmode vector
attr source cbrFrameDelaySignal
attr title "Cbr Frame Delay"
attr unit s
vector 134 SingleCell_Standalone.ue[0].app[0] cbrRcvdPkt:vector ETV
attr recordingmode vector
attr source cbrRcvdPkt
attr title "Received packet ID"
attr unit ""
vector 135 SingleCell_Standalone.ue[0].cellularNic.nrMac harqErrorRate_1st_Dl:vector ETV
attr recordingmode vector
attr source harqErrorRate_1st_Dl
attr title "Harq Error Rate Dl (1st tx)"
attr unit ""
vector 136 SingleCell_Standalone.ue[0].cellularNic.nrMac harqErrorRateDl:vector ETV
attr recordingmode vector
attr source harqErrorRateDl
attr title "Harq Error Rate Dl"
attr unit ""
vector 137 SingleCell_Standalone.ue[0].cellularNic.nrMac harqTxAttemptsDl:vector ETV
attr recordingmode vector
attr source harqTxAttemptsDl
attr title "Harq Tx Attempts Dl"
attr unit ""
vector 138 SingleCell_Standalone.bgCell[0].bgTrafficGenerator.bgUE[9].generator bgAverageCqiDl:vector ETV
attr recordingmode vector
attr source bgAverageCqiDl
attr title "Average DL CQI for background UEs"
attr unit ""
vector 139 SingleCell_Standalone.bgCell[0].bgTrafficGenerator.bgUE[9].generator bgHarqErrorRateDl:vector ETV
attr recordingmode vector
attr source bgHarqErrorRateDl
attr title "Average DL HARQ error rate for background UEs"
attr unit ""
vector 140 SingleCell_Standalone.bgCell[0].bgTrafficGenerator.bgUE[8].generator bgAverageCqiDl:vector ETV
attr recordingmode vector
attr source bgAverageCqiDl
attr title "Average DL CQI for background UEs"
attr unit ""
vector 141 SingleCell_Standalone.bgCell[0].bgTrafficGenerator.bgUE[8].generator bgHarqErrorRateDl:vector ETV
attr recordingmode vector
attr source bgHarqErrorRateDl
attr title "Average DL HARQ error rate for background UEs"
attr unit ""
vector 142 SingleCell_Standalone.bgCell[0].bgTrafficGenerator.bgUE[6].generator bgAverageCqiDl:vector ETV
attr recordingmode vector
attr source bgAverageCqiDl
attr title "Average DL CQI for background UEs"
attr unit ""
vector 143 SingleCell_Standalone.bgCell[0].bgTrafficGenerator.bgUE[6].generator bgHarqErrorRateDl:vector ETV
attr recordingmode vector
attr source bgHarqErrorRateDl
attr title "Average DL HARQ error rate for background UEs"
attr unit ""
vector 144 SingleCell_Standalone.bgCell[0].bgTrafficGenerator.bgUE[5].generator bgAverageCqiDl:vector ETV
attr recordingmode vector
attr source bgAverageCqiDl
attr title "Average DL CQI for background UEs"
attr unit ""
vector 145 SingleCell_Standalone.bgCell[0].bgTrafficGenerator.bgUE[5].generator bgHarqErrorRateDl:vector ETV
attr recordingmode vector
attr source bgHarqErrorRateDl
attr title "Average DL HARQ error rate for background UEs"
attr unit ""
vector 146 SingleCell_Standalone.bgCell[0].bgTrafficGenerator.bgUE[0].generator bgAverageCqiDl:vector ETV
attr recordingmode vector
attr source bgAverageCqiDl
attr title "Average DL CQI for background UEs"
attr unit ""
vector 147 SingleCell_Standalone.bgCell[0].bgTrafficGenerator.bgUE[0].generator bgHarqErrorRateDl:vector ETV
attr recordingmode vector
attr source bgHarqErrorRateDl
attr title "Average DL HARQ error rate for background UEs"
attr unit ""
vector 148 SingleCell_Standalone.server.app[0] cbrGeneratedThroughtput:vector ETV
attr recordingmode vector
attr source cbrGeneratedThroughtputSignal
attr title "Throughput generated by the application"
attr unit Bps
0	0	1	0
0	0	1	0
0	0	1	0
0	0	1	0
0	0	1	0
0	14072	1.00246073897	0
0	14208	1.01246073897	0
0	14355	1.02246073897	0
0	14500	1.03246073897	0
0	14635	1.04246073897	0
0	14782	1.05246073897	0
0	14926	1.06246073897	0
0	15061	1.07246073897	0
0	15207	1.08246073897	0
0	15350	1.09246073897	0
0	15486	1.10246073897	0
0	15633	1.11246073897	0
0	15777	1.12246073897	0
0	15912	1.13246073897	0
0	16059	1.14246073897	0
0	16203	1.15246073897	0
0	16339	1.16246073897	0
0	16486	1.17246073897	0
0	16629	1.18246073897	0
0	16768	1.19246073897	0
0	16915	1.20246073897	0
0	17058	1.21246073897	0
0	17195	1.22246073897	0
0	17342	1.23246073897	0
0	17488	1.24246073897	0
0	17625	1.25246073897	0
0	17771	1.26246073897	0
0	17918	1.27246073897	0
0	18055	1.28246073897	0
0	18202	1.29246073897	0
0	18346	1.30246073897	0
0	18483	1.31246073897	0
0	18631	1.32246073897	0
0	18776	1.33246073897	0
0	18913	1.34246073897	0
0	19060	1.35246073897	0
0	19205	1.36246073897	0
0	19341	1.37246073897	0
0	19491	1.38246073897	0
0	19635	1.39246073897	0
0	19770	1.40246073897	0
0	19917	1.41246073897	0
0	20060	1.42246073897	0
0	20195	1.43246073897	0
0	20344	1.44246073897	0
0	20489	1.45246073897	0
0	20626	1.46246073897	0
0	20772	1.47246073897	0
0	20916	1.48246073897	0
0	21053	1.49246073897	0
0	21199	1.50246073897	0
0	21345	1.51246073897	0
0	21481	1.52246073897	0
0	21629	1.53246073897	0
0	21774	1.54246073897	0
0	21912	1.55246073897	0
0	22060	1.56246073897	0
0	22203	1.57246073897	0
0	22342	1.58246073897	0
0	22489	1.59246073897	0
0	22632	1.60246073897	0
0	22767	1.61246073897	0
0	22915	1.62246073897	0
0	23059	1.63246073897	0
0	23196	1.64246073897	0
0	23344	1.65246073897	0
0	23489	1.66246073897	0
0	23625	1.67246073897	0
0	23773	1.68246073897	0
0	23919	1.69246073897	0
0	24055	1.70246073897	0
0	24203	1.71246073897	0
0	24348	1.72246073897	0
0	24484	1.73246073897	0
0	24631	1.74246073897	0
0	24776	1.75246073897	0
0	24911	1.76246073897	0
0	25058	1.77246073897	0
0	25202	1.78246073897	0
0	25337	1.79246073897	0
0	25484	1.80246073897	0
0	25629	1.81246073897	0
0	25765	1.82246073897	0
0	25913	1.83246073897	0
0	26058	1.84246073897	0
0	26194	1.85246073897	0
0	26343	1.86246073897	0
0	26488	1.87246073897	0
0	26625	1.88246073897	0
0	26773	1.89246073897	0
0	26918	1.90246073897	0
0	27054	1.91246073897	0
0	27201	1.92246073897	0
0	27344	1.93246073897	0
0	27485	1.94246073897	0
0	27633	1.95246073897	0
0	27777	1.96246073897	0
0	27914	1.97246073897	0
0	28061	1.98246073897	0
0	28206	1.99246073897	0
0	28342	2.00246073897	0
0	28488	2.01246073897	0
0	28631	2.02246073897	0
0	28767	2.03246073897	0
0	28914	2.04246073897	0
0	29060	2.05246073897	0
0	29196	2.06246073897	0
0	29342	2.07246073897	0
0	29486	2.08246073897	0
0	29621	2.09246073897	0
0	29771	2.10246073897	0
0	29915	2.11246073897	0
0	30051	2.12246073897	0
0	30197	2.13246073897	0
0	30340	2.14246073897	0
0	30476	2.15246073897	0
0	30622	2.16246073897	0
0	30767	2.17246073897	0
0	30903	2.18246073897	0
0	31050	2.19246073897	0
0	31194	2.20246073897	0
0	31331	2.21246073897	0
0	31479	2.22246073897	0
0	31623	2.23246073897	0
0	31761	2.24246073897	0
0	31909	2.25246073897	0
0	32053	2.26246073897	0
0	32190	2.27246073897	0
0	32338	2.28246073897	0
0	32481	2.29246073897	0
0	32618	2.30246073897	0
0	32764	2.31246073897	0
0	32907	2.32246073897	0
0	33043	2.33246073897	0
0	33190	2.34246073897	0
0	33336	2.35246073897	0
0	33472	2.36246073897	0
0	33618	2.37246073897	0
0	33762	2.38246073897	0
0	33899	2.39246073897	0
0	34047	2.40246073897	0
0	34190	2.41246073897	0
0	34327	2.42246073897	0
0	34474	2.43246073897	0
0	34619	2.44246073897	0
0	34756	2.45246073897	0
0	34903	2.46246073897	0
0	35048	2.47246073897	0
0	35185	2.48246073897	0
0	35334	2.49246073897	0
0	35477	2.50246073897	0
0	35613	2.51246073897	0
0	35761	2.52246073897	0
0	35905	2.53246073897	0
0	36041	2.54246073897	0
0	36187	2.55246073897	0
0	36331	2.56246073897	0
0	36469	2.57246073897	0
0	36617	2.58246073897	0
0	36761	2.59246073897	0
0	36896	2.60246073897	0
0	37043	2.61246073897	0
0	37188	2.62246073897	0
0	37326	2.63246073897	0
0	37473	2.64246073897	0
0	37617	2.65246073897	0
0	37754	2.66246073897	0
0	37903	2.67246073897	0
0	38047	2.68246073897	0
0	38182	2.69246073897	0
0	38329	2.70246073897	0
0	38473	2.71246073897	0
0	38609	2.72246073897	0
0	38757	2.73246073897	0
0	38900	2.74246073897	0
0	39037	2.75246073897	0
0	39183	2.76246073897	0
0	39326	2.77246073897	0
0	39465	2.78246073897	0
0	39613	2.79246073897	0
0	39757	2.80246073897	0
0	39892	2.81246073897	0
0	40038	2.82246073897	0
0	40183	2.83246073897	0
0	40320	2.84246073897	0
0	40467	2.85246073897	0
0	40612	2.86246073897	0
0	40748	2.87246073897	0
0	40895	2.88246073897	0
0	41039	2.89246073897	0
0	41178	2.90246073897	0
0	41325	2.91246073897	0
0	41468	2.92246073897	0
0	41604	2.93246073897	0
0	41751	2.94246073897	0
0	41895	2.95246073897	0
0	42032	2.96246073897	0
0	42182	2.97246073897	0
0	42328	2.98246073897	0
0	42465	2.99246073897	0
0	42611	3.00246073897	0
0	42754	3.01246073897	0
0	42891	3.02246073897	0
0	43038	3.03246073897	0
0	43183	3.04246073897	0
0	43322	3.05246073897	0
0	43469	3.06246073897	0
0	43614	3.07246073897	0
0	43752	3.08246073897	0
0	43898	3.09246073897	0
0	44044	3.10246073897	0
0	44183	3.11246073897	0
0	44331	3.12246073897	0
0	44474	3.13246073897	0
0	44610	3.14246073897	0
0	44756	3.15246073897	0
0	44900	3.16246073897	0
0	45035	3.17246073897	0
0	45182	3.18246073897	0
0	45328	3.19246073897	0
0	45464	3.20246073897	0
0	45611	3.21246073897	0
0	45758	3.22246073897	0
0	45895	3.23246073897	0
0	46041	3.24246073897	0
0	46185	3.25246073897	0
0	46322	3.26246073897	0
0	46470	3.27246073897	0
0	46615	3.28246073897	0
0	46751	3.29246073897	0
0	46899	3.30246073897	0
0	47043	3.31246073897	0
0	47180	3.32246073897	0
0	47327	3.33246073897	0
0	47474	3.34246073897	0
0	47611	3.35246073897	0
0	47758	3.36246073897	0
0	47901	3.37246073897	0
0	48037	3.38246073897	0
0	48183	3.39246073897	0
0	48326	3.40246073897	0
0	48461	3.41246073897	0
0	48607	3.42246073897	0
0	48753	3.43246073897	0
0	48892	3.44246073897	0
0	49039	3.45246073897	0
0	49182	3.46246073897	0
0	49318	3.47246073897	0
0	49467	3.48246073897	0
0	49611	3.49246073897	0
0	49748	3.50246073897	0
0	49894	3.51246073897	0
0	50037	3.52246073897	0
0	50173	3.53246073897	0
0	50320	3.54246073897	0
0	50466	3.55246073897	0
0	50603	3.56246073897	0
0	50750	3.57246073897	0
0	50895	3.58246073897	0
0	51031	3.59246073897	0
0	51178	3.60246073897	0
0	51321	3.61246073897	0
0	51458	3.62246073897	0
0	51607	3.63246073897	0
0	51750	3.64246073897	0
0	51886	3.65246073897	0
0	52032	3.66246073897	0
0	52178	3.67246073897	0
0	52314	3.68246073897	0
0	52462	3.69246073897	0
0	52606	3.70246073897	0
0	52744	3.71246073897	0
0	52891	3.72246073897	0
0	53038	3.73246073897	0
0	53175	3.74246073897	0
0	53321	3.75246073897	0
0	53467	3.76246073897	0
0	53602	3.77246073897	0
0	53750	3.78246073897	0
0	53894	3.79246073897	0
0	54029	3.80246073897	0
0	54177	3.81246073897	0
0	54322	3.82246073897	0
0	54458	3.83246073897	0
0	54605	3.84246073897	0
0	54748	3.85246073897	0
0	54887	3.86246073897	0
0	55034	3.87246073897	0
0	55178	3.88246073897	0
0	55314	3.89246073897	0
0	55461	3.90246073897	0
0	55605	3.91246073897	0
0	55743	3.92246073897	0
0	55889	3.93246073897	0
0	56034	3.94246073897	0
0	56171	3.95246073897	0
0	56319	3.96246073897	0
0	56464	3.97246073897	0
0	56601	3.98246073897	0
0	56749	3.99246073897	0
0	56895	4.00246073897	0
0	57032	4.01246073897	0
0	57180	4.02246073897	0
0	57327	4.03246073897	0
0	57462	4.04246073897	0
0	57611	4.05246073897	0
0	57756	4.06246073897	0
0	57892	4.07246073897	0
0	58039	4.08246073897	0
0	58184	4.09246073897	0
0	58321	4.10246073897	0
0	58469	4.11246073897	0
0	58613	4.12246073897	0
0	58749	4.13246073897	0
0	58895	4.14246073897	0
0	59040	4.15246073897	0
0	59176	4.16246073897	0
0	59325	4.17246073897	0
0	59469	4.18246073897	0
0	59605	4.19246073897	0
0	59752	4.20246073897	0
0	59899	4.21246073897	0
0	60034	4.22246073897	0
0	60180	4.23246073897	0
0	60325	4.24246073897	0
0	60462	4.25246073897	0
0	60609	4.26246073897	0
0	60756	4.27246073897	0
0	60895	4.28246073897	0
0	61044	4.29246073897	0
0	61188	4.30246073897	0
0	61324	4.31246073897	0
0	61474	4.32246073897	0
0	61618	4.33246073897	0
0	61753	4.34246073897	0
0	61899	4.35246073897	0
0	62042	4.36246073897	0
0	62177	4.37246073897	0
0	62324	4.38246073897	0
0	62467	4.39246073897	0
0	62605	4.40246073897	0
0	62752	4.41246073897	0
0	62895	4.42246073897	0
0	63032	4.43246073897	0
0	63179	4.44246073897	0
0	63323	4.45246073897	0
0	63460	4.46246073897	0
0	63609	4.47246073897	0
0	63754	4.48246073897	0
0	63889	4.49246073897	0
0	64036	4.50246073897	0
0	64179	4.51246073897	0
0	64317	4.52246073897	0
0	64466	4.53246073897	0
0	64611	4.54246073897	0
0	64747	4.55246073897	0
0	64896	4.56246073897	0
0	65039	4.57246073897	0
0	65174	4.58246073897	0
0	65321	4.59246073897	0
0	65464	4.60246073897	0
0	65601	4.61246073897	0
0	65748	4.62246073897	0
0	65891	4.63246073897	0
0	66028	4.64246073897	0
0	66176	4.65246073897	0
0	66320	4.66246073897	0
0	66457	4.67246073897	0
0	66603	4.68246073897	0
0	66747	4.69246073897	0
0	66884	4.70246073897	0
0	67030	4.71246073897	0
0	67174	4.72246073897	0
0	67310	4.73246073897	0
0	67457	4.74246073897	0
0	67601	4.75246073897	0
0	67741	4.76246073897	0
0	67887	4.77246073897	0
0	68032	4.78246073897	0
0	68168	4.79246073897	0
0	68317	4.80246073897	0
0	68461	4.81246073897	0
0	68598	4.82246073897	0
0	68746	4.83246073897	0
0	68891	4.84246073897	0
0	69026	4.85246073897	0
0	69174	4.86246073897	0
0	69320	4.87246073897	0
0	69457	4.88246073897	0
0	69606	4.89246073897	0
0	69749	4.90246073897	0
0	69885	4.91246073897	0
0	70032	4.92246073897	0
0	70176	4.93246073897	0
0	70313	4.94246073897	0
0	70459	4.95246073897	0
0	70602	4.96246073897	0
0	70740	4.97246073897	0
0	70886	4.98246073897	0
0	71029	4.99246073897	0
0	71165	5.00246073897	0
0	71315	5.01246073897	0
0	71460	5.02246073897	0
0	71599	5.03246073897	0
0	71746	5.04246073897	0
0	71893	5.05246073897	0
0	72029	5.06246073897	0
0	72178	5.07246073897	0
0	72324	5.08246073897	0
0	72463	5.09246073897	0
0	72610	5.10246073897	0
0	72754	5.11246073897	0
0	72891	5.12246073897	0
0	73038	5.13246073897	0
0	73181	5.14246073897	0
0	73317	5.15246073897	0
0	73464	5.16246073897	0
0	73607	5.17246073897	0
0	73745	5.18246073897	0
0	73892	5.19246073897	0
0	74035	5.20246073897	0
0	74172	5.21246073897	0
0	74320	5.22246073897	0
0	74464	5.23246073897	0
0	74600	5.24246073897	0
0	74747	5.25246073897	0
0	74892	5.26246073897	0
0	75028	5.27246073897	0
0	75176	5.28246073897	0
0	75321	5.29246073897	0
0	75457	5.30246073897	0
0	75603	5.31246073897	0
0	75748	5.32246073897	0
0	75885	5.33246073897	0
0	76032	5.34246073897	0
0	76176	5.35246073897	0
0	76313	5.36246073897	0
0	76461	5.37246073897	0
0	76604	5.38246073897	0
0	76739	5.39246073897	0
0	76885	5.40246073897	0
0	77029	5.41246073897	0
0	77169	5.42246073897	0
0	77316	5.43246073897	0
0	77460	5.44246073897	0
0	77598	5.45246073897	0
0	77746	5.46246073897	0
0	77890	5.47246073897	0
0	78025	5.48246073897	0
0	78174	5.49246073897	0
0	78319	5.50246073897	0
0	78455	5.51246073897	0
0	78601	5.52246073897	0
0	78746	5.53246073897	0
0	78881	5.54246073897	0
0	79028	5.55246073897	0
0	79173	5.56246073897	0
0	79308	5.57246073897	0
0	79456	5.58246073897	0
0	79602	5.59246073897	0
0	79737	5.60246073897	0
0	79883	5.61246073897	0
0	80026	5.62246073897	0
0	80163	5.63246073897	0
0	80310	5.64246073897	0
0	80455	5.65246073897	0
0	80594	5.66246073897	0
0	80741	5.67246073897	0
0	80885	5.68246073897	0
0	81021	5.69246073897	0
0	81168	5.70246073897	0
0	81315	5.71246073897	0
0	81451	5.72246073897	0
0	81597	5.73246073897	0
0	81741	5.74246073897	0
0	81878	5.75246073897	0
0	82025	5.76246073897	0
0	82170	5.77246073897	0
0	82306	5.78246073897	0
0	82452	5.79246073897	0
0	82596	5.80246073897	0
0	82732	5.81246073897	0
0	82878	5.82246073897	0
0	83021	5.83246073897	0
0	83156	5.84246073897	0
0	83303	5.85246073897	0
0	83448	5.86246073897	0
0	83585	5.87246073897	0
0	83734	5.88246073897	0
0	83878	5.89246073897	0
0	84013	5.90246073897	0
0	84161	5.91246073897	0
0	84305	5.92246073897	0
0	84443	5.93246073897	0
0	84592	5.94246073897	0
0	84737	5.95246073897	0
0	84874	5.96246073897	0
0	85021	5.97246073897	0
0	85167	5.98246073897	0
0	85303	5.99246073897	0
0	85449	6.00246073897	0
0	85593	6.01246073897	0
0	85728	6.02246073897	0
0	85876	6.03246073897	0
0	86020	6.04246073897	0
0	86157	6.05246073897	0
0	86304	6.06246073897	0
0	86450	6.07246073897	0
0	86586	6.08246073897	0
0	86734	6.09246073897	0
0	86878	6.10246073897	0
0	87013	6.11246073897	0
0	87161	6.12246073897	0
0	87306	6.13246073897	0
0	87441	6.14246073897	0
0	87587	6.15246073897	0
0	87732	6.16246073897	0
0	87869	6.17246073897	0
0	88017	6.18246073897	0
0	88162	6.19246073897	0
0	88298	6.20246073897	0
0	88446	6.21246073897	0
0	88592	6.22246073897	0
0	88727	6.23246073897	0
0	88876	6.24246073897	0
0	89020	6.25246073897	0
0	89157	6.26246073897	0
0	89305	6.27246073897	0
0	89449	6.28246073897	0
0	89584	6.29246073897	0
0	89731	6.30246073897	0
0	89875	6.31246073897	0
0	90012	6.32246073897	0
0	90158	6.33246073897	0
0	90302	6.34246073897	0
0	90438	6.35246073897	0
0	90585	6.36246073897	0
0	90729	6.37246073897	0
0	90866	6.38246073897	0
0	91014	6.39246073897	0
0	91161	6.40246073897	0
0	91297	6.41246073897	0
0	91443	6.42246073897	0
0	91588	6.43246073897	0
0	91723	6.44246073897	0
0	91869	6.45246073897	0
0	92012	6.46246073897	0
0	92148	6.47246073897	0
0	92296	6.48246073897	0
0	92440	6.49246073897	0
0	92578	6.50246073897	0
0	92727	6.51246073897	0
0	92873	6.52246073897	0
0	93008	6.53246073897	0
0	93157	6.54246073897	0
0	93303	6.55246073897	0
0	93439	6.56246073897	0
0	93585	6.57246073897	0
0	93729	6.58246073897	0
0	93865	6.59246073897	0
0	94014	6.60246073897	0
0	94158	6.61246073897	0
0	94294	6.62246073897	0
0	94443	6.63246073897	0
0	94588	6.64246073897	0
0	94723	6.65246073897	0
0	94871	6.66246073897	0
0	95016	6.67246073897	0
0	95152	6.68246073897	0
0	95300	6.69246073897	0
0	95445	6.70246073897	0
0	95581	6.71246073897	0
0	95727	6.72246073897	0
0	95870	6.73246073897	0
0	96005	6.74246073897	0
0	96153	6.75246073897	0
0	96296	6.76246073897	0
0	96434	6.77246073897	0
0	96580	6.78246073897	0
0	96723	6.79246073897	0
0	96858	6.80246073897	0
0	97004	6.81246073897	0
0	97149	6.82246073897	0
0	97285	6.83246073897	0
0	97431	6.84246073897	0
0	97574	6.85246073897	0
0	97712	6.86246073897	0
0	97859	6.87246073897	0
0	98004	6.88246073897	0
0	98142	6.89246073897	0
0	98289	6.90246073897	0
0	98433	6.91246073897	0
0	98570	6.92246073897	0
0	98718	6.93246073897	0
0	98862	6.94246073897	0
0	98997	6.95246073897	0
0	99143	6.96246073897	0
0	99286	6.97246073897	0
0	99423	6.98246073897	0
0	99570	6.99246073897	0
0	99714	7.00246073897	0
0	99850	7.01246073897	0
0	100000	7.02246073897	0
0	100146	7.03246073897	0
0	100283	7.04246073897	0
0	100433	7.05246073897	0
0	100577	7.06246073897	0
0	100715	7.07246073897	0
0	100862	7.08246073897	0
0	101006	7.09246073897	0
0	101143	7.10246073897	0
0	101289	7.11246073897	0
0	101435	7.12246073897	0
0	101572	7.13246073897	0
0	101718	7.14246073897	0
0	101863	7.15246073897	0
0	102000	7.16246073897	0
0	102147	7.17246073897	0
0	102292	7.18246073897	0
0	102428	7.19246073897	0
0	102576	7.20246073897	0
0	102720	7.21246073897	0
0	102857	7.22246073897	0
0	103007	7.23246073897	0
0	103153	7.24246073897	0
0	103290	7.25246073897	0
0	103437	7.26246073897	0
0	103583	7.27246073897	0
0	103719	7.28246073897	0
0	103866	7.29246073897	0
0	104009	7.30246073897	0
0	104146	7.31246073897	0
0	104296	7.32246073897	0
0	104442	7.33246073897	0
0	104577	7.34246073897	0
0	104724	7.35246073897	0
0	104868	7.36246073897	0
0	105004	7.37246073897	0
0	105151	7.38246073897	0
0	105296	7.39246073897	0
0	105432	7.40246073897	0
0	105580	7.41246073897	0
0	105725	7.42246073897	0
0	105861	7.43246073897	0
0	106008	7.44246073897	0
0	106151	7.45246073897	0
0	106288	7.46246073897	0
0	106436	7.47246073897	0
0	106581	7.48246073897	0
0	106717	7.49246073897	0
0	106864	7.50246073897	0
0	107010	7.51246073897	0
0	107145	7.52246073897	0
0	107292	7.53246073897	0
0	107435	7.54246073897	0
0	107571	7.55246073897	0
0	107717	7.56246073897	0
0	107860	7.57246073897	0
0	107997	7.58246073897	0
0	108144	7.59246073897	0
0	108288	7.60246073897	0
0	108424	7.61246073897	0
0	108574	7.62246073897	0
0	108717	7.63246073897	0
0	108854	7.64246073897	0
0	109001	7.65246073897	0
0	109145	7.66246073897	0
0	109283	7.67246073897	0
0	109429	7.68246073897	0
0	109573	7.69246073897	0
0	109708	7.70246073897	0
0	109855	7.71246073897	0
0	109998	7.72246073897	0
0	110133	7.73246073897	0
0	110279	7.74246073897	0
0	110422	7.75246073897	0
0	110557	7.76246073897	0
0	110704	7.77246073897	0
0	110850	7.78246073897	0
0	110987	7.79246073897	0
0	111139	7.80246073897	0
0	111285	7.81246073897	0
0	111420	7.82246073897	0
0	111566	7.83246073897	0
0	111710	7.84246073897	0
0	111847	7.85246073897	0
0	111993	7.86246073897	0
0	112137	7.87246073897	0
0	112272	7.88246073897	0
0	112420	7.89246073897	0
0	112565	7.90246073897	0
0	112702	7.91246073897	0
0	112851	7.92246073897	0
0	112996	7.93246073897	0
0	113132	7.94246073897	0
0	113278	7.95246073897	0
0	113422	7.96246073897	0
0	113558	7.97246073897	0
0	113705	7.98246073897	0
0	113849	7.99246073897	0
0	113985	8.00246073897	0
0	114133	8.01246073897	0
0	114276	8.02246073897	0
0	114412	8.03246073897	0
0	114560	8.04246073897	0
0	114709	8.05246073897	0
0	114844	8.06246073897	0
0	114992	8.07246073897	0
0	115136	8.08246073897	0
0	115272	8.09246073897	0
0	115419	8.10246073897	0
0	115566	8.11246073897	0
0	115702	8.12246073897	0
0	115849	8.13246073897	0
0	115993	8.14246073897	0
0	116130	8.15246073897	0
0	116276	8.16246073897	0
0	116420	8.17246073897	0
0	116555	8.18246073897	0
0	116701	8.19246073897	0
0	116844	8.20246073897	0
0	116980	8.21246073897	0
0	117127	8.22246073897	0
0	117272	8.23246073897	0
0	117410	8.24246073897	0
0	117558	8.25246073897	0
0	117704	8.26246073897	0
0	117841	8.27246073897	0
0	117988	8.28246073897	0
0	118133	8.29246073897	0
0	118269	8.30246073897	0
0	118418	8.31246073897	0
0	118561	8.32246073897	0
0	118697	8.33246073897	0
0	118844	8.34246073897	0
0	118987	8.35246073897	0
0	119122	8.36246073897	0
0	119270	8.37246073897	0
0	119413	8.38246073897	0
0	119549	8.39246073897	0
0	119695	8.40246073897	0
0	119839	8.41246073897	0
0	119974	8.42246073897	0
0	120122	8.43246073897	0
0	120265	8.44246073897	0
0	120402	8.45246073897	0
0	120548	8.46246073897	0
0	120692	8.47246073897	0
0	120829	8.48246073897	0
0	120980	8.49246073897	0
0	121127	8.50246073897	0
0	121263	8.51246073897	0
0	121409	8.52246073897	0
0	121554	8.53246073897	0
0	121691	8.54246073897	0
0	121838	8.55246073897	0
0	121982	8.56246073897	0
0	122119	8.57246073897	0
0	122267	8.58246073897	0
0	122410	8.59246073897	0
0	122547	8.60246073897	0
0	122694	8.61246073897	0
0	122839	8.62246073897	0
0	122976	8.63246073897	0
0	123124	8.64246073897	0
0	123267	8.65246073897	0
0	123403	8.66246073897	0
0	123551	8.67246073897	0
0	123696	8.68246073897	0
0	123833	8.69246073897	0
0	123979	8.70246073897	0
0	124122	8.71246073897	0
0	124259	8.72246073897	0
0	124405	8.73246073897	0
0	124551	8.74246073897	0
0	124688	8.75246073897	0
0	124835	8.76246073897	0
0	124979	8.77246073897	0
0	125115	8.78246073897	0
0	125261	8.79246073897	0
0	125405	8.80246073897	0
0	125541	8.81246073897	0
0	125688	8.82246073897	0
0	125833	8.83246073897	0
0	125969	8.84246073897	0
0	126117	8.85246073897	0
0	126262	8.86246073897	0
0	126403	8.87246073897	0
0	126550	8.88246073897	0
0	126694	8.89246073897	0
0	126832	8.90246073897	0
0	126980	8.91246073897	0
0	127124	8.92246073897	0
0	127261	8.93246073897	0
0	127408	8.94246073897	0
0	127551	8.95246073897	0
0	127687	8.96246073897	0
0	127833	8.97246073897	0
0	127978	8.98246073897	0
0	128115	8.99246073897	0
0	128264	9.00246073897	0
0	128408	9.01246073897	0
0	128544	9.02246073897	0
0	128691	9.03246073897	0
0	128835	9.04246073897	0
0	128974	9.05246073897	0
0	129122	9.06246073897	0
0	129267	9.07246073897	0
0	129405	9.08246073897	0
0	129552	9.09246073897	0
0	129699	9.10246073897	0
0	129836	9.11246073897	0
0	129983	9.12246073897	0
0	130127	9.13246073897	0
0	130265	9.14246073897	0
0	130414	9.15246073897	0
0	130560	9.16246073897	0
0	130695	9.17246073897	0
0	130845	9.18246073897	0
0	130992	9.19246073897	0
0	131128	9.20246073897	0
0	131275	9.21246073897	0
0	131419	9.22246073897	0
0	131558	9.23246073897	0
0	131704	9.24246073897	0
0	131847	9.25246073897	0
0	131984	9.26246073897	0
0	132130	9.27246073897	0
0	132273	9.28246073897	0
0	132410	9.29246073897	0
0	132558	9.30246073897	0
0	132702	9.31246073897	0
0	132840	9.32246073897	0
0	132988	9.33246073897	0
0	133133	9.34246073897	0
0	133269	9.35246073897	0
0	133417	9.36246073897	0
0	133561	9.37246073897	0
0	133698	9.38246073897	0
0	133845	9.39246073897	0
0	133989	9.40246073897	0
0	134126	9.41246073897	0
0	134278	9.42246073897	0
0	134422	9.43246073897	0
0	134558	9.44246073897	0
0	134705	9.45246073897	0
0	134851	9.46246073897	0
0	134987	9.47246073897	0
0	135134	9.48246073897	0
0	135278	9.49246073897	0
0	135415	9.50246073897	0
0	135563	9.51246073897	0
0	135708	9.52246073897	0
0	135846	9.53246073897	0
0	135994	9.54246073897	0
0	136137	9.55246073897	0
0	136274	9.56246073897	0
0	136420	9.57246073897	0
0	136568	9.58246073897	0
0	136704	9.59246073897	0
0	136851	9.60246073897	0
0	136996	9.61246073897	0
0	137133	9.62246073897	0
0	137282	9.63246073897	0
0	137427	9.64246073897	0
0	137563	9.65246073897	0
0	137710	9.66246073897	0
0	137853	9.67246073897	0
0	137990	9.68246073897	0
0	138137	9.69246073897	0
0	138281	9.70246073897	0
0	138418	9.71246073897	0
0	138567	9.72246073897	0
0	138712	9.73246073897	0
0	138849	9.74246073897	0
0	138997	9.75246073897	0
0	139141	9.76246073897	0
0	139277	9.77246073897	0
0	139425	9.78246073897	0
0	139569	9.79246073897	0
0	139706	9.80246073897	0
0	139855	9.81246073897	0
0	140001	9.82246073897	0
0	140137	9.83246073897	0
0	140285	9.84246073897	0
0	140430	9.85246073897	0
0	140566	9.86246073897	0
0	140715	9.87246073897	0
0	140859	9.88246073897	0
0	140996	9.89246073897	0
0	141142	9.90246073897	0
0	141287	9.91246073897	0
0	141423	9.92246073897	0
0	141571	9.93246073897	0
0	141716	9.94246073897	0
0	141851	9.95246073897	0
0	141999	9.96246073897	0
0	142143	9.97246073897	0
0	142280	9.98246073897	0
0	142428	9.99246073897	0
1	0	1	0
1	0	1	0
1	0	1	0
1	0	1	0
1	0	1	0
1	14072	1.00246073897	0
1	14208	1.01246073897	0
1	14355	1.02246073897	0
1	14500	1.03246073897	0
1	14635	1.04246073897	0
1	14782	1.05246073897	0
1	14926	1.06246073897	0
1	15061	1.07246073897	0
1	15207	1.08246073897	0
1	15350	1.09246073897	0
1	15486	1.10246073897	0
1	15633	1.11246073897	0
1	15777	1.12246073897	0
1	15912	1.13246073897	0
1	16059	1.14246073897	0
1	16203	1.15246073897	0
1	16339	1.16246073897	0
1	16486	1.17246073897	0
1	16629	1.18246073897	0
1	16768	1.19246073897	0
1	16915	1.20246073897	0
1	17058	1.21246073897	0
1	17195	1.22246073897	0
1	17342	1.23246073897	0
1	17488	1.24246073897	0
1	17625	1.25246073897	0
1	17771	1.26246073897	0
1	17918	1.27246073897	0
1	18055	1.28246073897	0
1	18202	1.29246073897	0
1	18346	1.30246073897	0
1	18483	1.31246073897	0
1	18631	1.32246073897	0
1	18776	1.33246073897	0
1	18913	1.34246073897	0
1	19060	1.35246073897	0
1	19205	1.36246073897	0
1	19341	1.37246073897	0
1	19491	1.38246073897	0
1	19635	1.39246073897	0
1	19770	1.40246073897	0
1	19917	1.41246073897	0
1	20060	1.42246073897	0
1	20195	1.43246073897	0
1	20344	1.44246073897	0
1	20489	1.45246073897	0
1	20626	1.46246073897	0
1	20772	1.47246073897	0
1	20916	1.48246073897	0
1	21053	1.49246073897	0
1	21199	1.50246073897	0
1	21345	1.51246073897	0
1	21481	1.52246073897	0
1	21629	1.53246073897	0
1	21774	1.54246073897	0
1	21912	1.55246073897	0
1	22060	1.56246073897	0
1	22203	1.57246073897	0
1	22342	1.58246073897	0
1	22489	1.59246073897	0
1	22632	1.60246073897	0
1	22767	1.61246073897	0
1	22915	1.62246073897	0
1	23059	1.63246073897	0
1	23196	1.64246073897	0
1	23344	1.65246073897	0
1	23489	1.66246073897	0
1	23625	1.67246073897	0
1	23773	1.68246073897	0
1	23919	1.69246073897	0
1	24055	1.70246073897	0
1	24203	1.71246073897	0
1	24348	1.72246073897	0
1	24484	1.73246073897	0
1	24631	1.74246073897	0
1	24776	1.75246073897	0
1	24911	1.76246073897	0
1	25058	1.77246073897	0
1	25202	1.78246073897	0
1	25337	1.79246073897	0
1	25484	1.80246073897	0
1	25629	1.81246073897	0
1	25765	1.82246073897	0
1	25913	1.83246073897	0
1	26058	1.84246073897	0
1	26194	1.85246073897	0
1	26343	1.86246073897	0
1	26488	1.87246073897	0
1	26625	1.88246073897	0
1	26773	1.89246073897	0
1	26918	1.90246073897	0
1	27054	1.91246073897	0
1	27201	1.92246073897	0
1	27344	1.93246073897	0
1	27485	1.94246073897	0
1	27633	1.95246073897	0
1	27777	1.96246073897	0
1	27914	1.97246073897	0
1	28061	1.98246073897	0
1	28206	1.99246073897	0
1	28342	2.00246073897	0
1	28488	2.01246073897	0
1	28631	2.02246073897	0
1	28767	2.03246073897	0
1	28914	2.04246073897	0
1	29060	2.05246073897	0
1	29196	2.06246073897	0
1	29342	2.07246073897	0
1	29486	2.08246073897	0
1	29621	2.09246073897	0
1	29771	2.10246073897	0
1	29915	2.11246073897	0
1	30051	2.12246073897	0
1	30197	2.13246073897	0
1	30340	2.14246073897	0
1	30476	2.15246073897	0
1	30622	2.16246073897	0
1	30767	2.17246073897	0
1	30903	2.18246073897	0
1	31050	2.19246073897	0
1	31194	2.20246073897	0
1	31331	2.21246073897	0
1	31479	2.22246073897	0
1	31623	2.23246073897	0
1	31761	2.24246073897	0
1	31909	2.25246073897	0
1	32053	2.26246073897	0
1	32190	2.27246073897	0
1	32338	2.28246073897	0
1	32481	2.29246073897	0
1	32618	2.30246073897	0
1	32764	2.31246073897	0
1	32907	2.32246073897	0
1	33043	2.33246073897	0
1	33190	2.34246073897	0
1	33336	2.35246073897	0
1	33472	2.36246073897	0
1	33618	2.37246073897	0
1	33762	2.38246073897	0
1	33899	2.39246073897	0
1	34047	2.40246073897	0
1	34190	2.41246073897	0
1	34327	2.42246073897	0
1	34474	2.43246073897	0
1	34619	2.44246073897	0
1	34756	2.45246073897	0
1	34903	2.46246073897	0
1	35048	2.47246073897	0
1	35185	2.48246073897	0
1	35334	2.49246073897	0
1	35477	2.50246073897	0
1	35613	2.51246073897	0
1	35761	2.52246073897	0
1	35905	2.53246073897	0
1	36041	2.54246073897	0
1	36187	2.55246073897	0
1	36331	2.56246073897	0
1	36469	2.57246073897	0
1	36617	2.58246073897	0
1	36761	2.59246073897	0
1	36896	2.60246073897	0
1	37043	2.61246073897	0
1	37188	2.62246073897	0
1	37326	2.63246073897	0
1	37473	2.64246073897	0
1	37617	2.65246073897	0
1	37754	2.66246073897	0
1	37903	2.67246073897	0
1	38047	2.68246073897	0
1	38182	2.69246073897	0
1	38329	2.70246073897	0
1	38473	2.71246073897	0
1	38609	2.72246073897	0
1	38757	2.73246073897	0
1	38900	2.74246073897	0
1	39037	2.75246073897	0
1	39183	2.76246073897	0
1	39326	2.77246073897	0
1	39465	2.78246073897	0
1	39613	2.79246073897	0
1	39757	2.80246073897	0
1	39892	2.81246073897	0
1	40038	2.82246073897	0
1	40183	2.83246073897	0
1	40320	2.84246073897	0
1	40467	2.85246073897	0
1	40612	2.86246073897	0
1	40748	2.87246073897	0
1	40895	2.88246073897	0
1	41039	2.89246073897	0
1	41178	2.90246073897	0
1	41325	2.91246073897	0
1	41468	2.92246073897	0
1	41604	2.93246073897	0
1	41751	2.94246073897	0
1	41895	2.95246073897	0
1	42032	2.96246073897	0
1	42182	2.97246073897	0
1	42328	2.98246073897	0
1	42465	2.99246073897	0
1	42611	3.00246073897	0
1	42754	3.01246073897	0
1	42891	3.02246073897	0
1	43038	3.03246073897	0
1	43183	3.04246073897	0
1	43322	3.05246073897	0
1	43469	3.06246073897	0
1	43614	3.07246073897	0
1	43752	3.08246073897	0
1	43898	3.09246073897	0
1	44044	3.10246073897	0
1	44183	3.11246073897	0
1	44331	3.12246073897	0
1	44474	3.13246073897	0
1	44610	3.14246073897	0
1	44756	3.15246073897	0
1	44900	3.16246073897	0
1	45035	3.17246073897	0
1	45182	3.18246073897	0
1	45328	3.19246073897	0
1	45464	3.20246073897	0
1	45611	3.21246073897	0
1	45758	3.22246073897	0
1	45895	3.23246073897	0
1	46041	3.24246073897	0
1	46185	3.25246073897	0
1	46322	3.26246073897	0
1	46470	3.27246073897	0
1	46615	3.28246073897	0
1	46751	3.29246073897	0
1	46899	3.30246073897	0
1	47043	3.31246073897	0
1	47180	3.32246073897	0
1	47327	3.33246073897	0
1	47474	3.34246073897	0
1	47611	3.35246073897	0
1	47758	3.36246073897	0
1	47901	3.37246073897	0
1	48037	3.38246073897	0
1	48183	3.39246073897	0
1	48326	3.40246073897	0
1	48461	3.41246073897	0
1	48607	3.42246073897	0
1	48753	3.43246073897	0
1	48892	3.44246073897	0
1	49039	3.45246073897	0
1	49182	3.46246073897	0
1	49318	3.47246073897	0
1	49467	3.48246073897	0
1	49611	3.49246073897	0
1	49748	3.50246073897	0
1	49894	3.51246073897	0
1	50037	3.52246073897	0
1	50173	3.53246073897	0
1	50320	3.54246073897	0
1	50466	3.55246073897	0
1	50603	3.56246073897	0
1	50750	3.57246073897	0
1	50895	3.58246073897	0
1	51031	3.59246073897	0
1	51178	3.60246073897	0
1	51321	3.61246073897	0
1	51458	3.62246073897	0
1	51607	3.63246073897	0
1	51750	3.64246073897	0
1	51886	3.65246073897	0
1	52032	3.66246073897	0
1	52178	3.67246073897	0
1	52314	3.68246073897	0
1	52462	3.69246073897	0
1	52606	3.70246073897	0
1	52744	3.71246073897	0
1	52891	3.72246073897	0
1	53038	3.73246073897	0
1	53175	3.74246073897	0
1	53321	3.75246073897	0
1	53467	3.76246073897	0
1	53602	3.77246073897	0
1	53750	3.78246073897	0
1	53894	3.79246073897	0
1	54029	3.80246073897	0
1	54177	3.81246073897	0
1	54322	3.82246073897	0
1	54458	3.83246073897	0
1	54605	3.84246073897	0
1	54748	3.85246073897	0
1	54887	3.86246073897	0
1	55034	3.87246073897	0
1	55178	3.88246073897	0
1	55314	3.89246073897	0
1	55461	3.90246073897	0
1	55605	3.91246073897	0
1	55743	3.92246073897	0
1	55889	3.93246073897	0
1	56034	3.94246073897	0
1	56171	3.95246073897	0
1	56319	3.96246073897	0
1	56464	3.97246073897	0
1	56601	3.98246073897	0
1	56749	3.99246073897	0
1	56895	4.00246073897	0
1	57032	4.01246073897	0
1	57180	4.02246073897	0
1	57327	4.03246073897	0
1	57462	4.04246073897	0
1	57611	4.05246073897	0
1	57756	4.06246073897	0
1	57892	4.07246073897	0
1	58039	4.08246073897	0
1	58184	4.09246073897	0
1	58321	4.10246073897	0
1	58469	4.11246073897	0
1	58613	4.12246073897	0
1	58749	4.13246073897	0
1	58895	4.14246073897	0
1	59040	4.15246073897	0
1	59176	4.16246073897	0
1	59325	4.17246073897	0
1	59469	4.18246073897	0
1	59605	4.19246073897	0
1	59752	4.20246073897	0
1	59899	4.21246073897	0
1	60034	4.22246073897	0
1	60180	4.23246073897	0
1	60325	4.24246073897	0
1	60462	4.25246073897	0
1	60609	4.26246073897	0
1	60756	4.27246073897	0
1	60895	4.28246073897	0
1	61044	4.29246073897	0
1	61188	4.30246073897	0
1	61324	4.31246073897	0
1	61474	4.32246073897	0
1	61618	4.33246073897	0
1	61753	4.34246073897	0
1	61899	4.35246073897	0
1	62042	4.36246073897	0
1	62177	4.37246073897	0
1	62324	4.38246073897	0
1	62467	4.39246073897	0
1	62605	4.40246073897	0
1	62752	4.41246073897	0
1	62895	4.42246073897	0
1	63032	4.43246073897	0
1	63179	4.44246073897	0
1	63323	4.45246073897	0
1	63460	4.46246073897	0
1	63609	4.47246073897	0
1	63754	4.48246073897	0
1	63889	4.49246073897	0
1	64036	4.50246073897	0
1	64179	4.51246073897	0
1	64317	4.52246073897	0
1	64466	4.53246073897	0
1	64611	4.54246073897	0
1	64747	4.55246073897	0
1	64896	4.56246073897	0
1	65039	4.57246073897	0
1	65174	4.58246073897	0
1	65321	4.59246073897	0
1	65464	4.60246073897	0
1	65601	4.61246073897	0
1	65748	4.62246073897	0
1	65891	4.63246073897	0
1	66028	4.64246073897	0
1	66176	4.65246073897	0
1	66320	4.66246073897	0
1	66457	4.67246073897	0
1	66603	4.68246073897	0
1	66747	4.69246073897	0
1	66884	4.70246073897	0
1	67030	4.71246073897	0
1	67174	4.72246073897	0
1	67310	4.73246073897	0
1	67457	4.74246073897	0
1	67601	4.75246073897	0
1	67741	4.76246073897	0
1	67887	4.77246073897	0
1	68032	4.78246073897	0
1	68168	4.79246073897	0
1	68317	4.80246073897	0
1	68461	4.81246073897	0
1	68598	4.82246073897	0
1	68746	4.83246073897	0
1	68891	4.84246073897	0
1	69026	4.85246073897	0
1	69174	4.86246073897	0
1	69320	4.87246073897	0
1	69457	4.88246073897	0
1	69606	4.89246073897	0
1	69749	4.90246073897	0
1	69885	4.91246073897	0
1	70032	4.92246073897	0
1	70176	4.93246073897	0
1	70313	4.94246073897	0
1	70459	4.95246073897	0
1	70602	4.96246073897	0
1	70740	4.97246073897	0
1	70886	4.98246073897	0
1	71029	4.99246073897	0
1	71165	5.00246073897	0
1	71315	5.01246073897	0
1	71460	5.02246073897	0
1	71599	5.03246073897	0
1	71746	5.04246073897	0
1	71893	5.05246073897	0
1	72029	5.06246073897	0
1	72178	5.07246073897	0
1	72324	5.08246073897	0
1	72463	5.09246073897	0
1	72610	5.10246073897	0
1	72754	5.11246073897	0
1	72891	5.12246073897	0
1	73038	5.13246073897	0
1	73181	5.14246073897	0
1	73317	5.15246073897	0
1	73464	5.16246073897	0
1	73607	5.17246073897	0
1	73745	5.18246073897	0
1	73892	5.19246073897	0
1	74035	5.20246073897	0
1	74172	5.21246073897	0
1	74320	5.22246073897	0
1	74464	5.23246073897	0
1	74600	5.24246073897	0
1	74747	5.25246073897	0
1	74892	5.26246073897	0
1	75028	5.27246073897	0
1	75176	5.28246073897	0
1	75321	5.29246073897	0
1	75457	5.30246073897	0
1	75603	5.31246073897	0
1	75748	5.32246073897	0
1	75885	5.33246073897	0
1	76032	5.34246073897	0
1	76176	5.35246073897	0
1	76313	5.36246073897	0
1	76461	5.37246073897	0
1	76604	5.38246073897	0
1	76739	5.39246073897	0
1	76885	5.40246073897	0
1	77029	5.41246073897	0
1	77169	5.42246073897	0
1	77316	5.43246073897	0
1	77460	5.44246073897	0
1	77598	5.45246073897	0
1	77746	5.46246073897	0
1	77890	5.47246073897	0
1	78025	5.48246073897	0
1	78174	5.49246073897	0
1	78319	5.50246073897	0
1	78455	5.51246073897	0
1	78601	5.52246073897	0
1	78746	5.53246073897	0
1	78881	5.54246073897	0
1	79028	5.55246073897	0
1	79173	5.56246073897	0
1	79308	5.57246073897	0
1	79456	5.58246073897	0
1	79602	5.59246073897	0
1	79737	5.60246073897	0
1	79883	5.61246073897	0
1	80026	5.62246073897	0
1	80163	5.63246073897	0
1	80310	5.64246073897	0
1	80455	5.65246073897	0
1	80594	5.66246073897	0
1	80741	5.67246073897	0
1	80885	5.68246073897	0
1	81021	5.69246073897	0
1	81168	5.70246073897	0
1	81315	5.71246073897	0
1	81451	5.72246073897	0
1	81597	5.73246073897	0
1	81741	5.74246073897	0
1	81878	5.75246073897	0
1	82025	5.76246073897	0
1	82170	5.77246073897	0
1	82306	5.78246073897	0
1	82452	5.79246073897	0
1	82596	5.80246073897	0
1	82732	5.81246073897	0
1	82878	5.82246073897	0
1	83021	5.83246073897	0
1	83156	5.84246073897	0
1	83303	5.85246073897	0
1	83448	5.86246073897	0
1	83585	5.87246073897	0
1	83734	5.88246073897	0
1	83878	5.89246073897	0
1	84013	5.90246073897	0
1	84161	5.91246073897	0
1	84305	5.92246073897	0
1	84443	5.93246073897	0
1	84592	5.94246073897	0
1	84737	5.95246073897	0
1	84874	5.96246073897	0
1	85021	5.97246073897	0
1	85167	5.98246073897	0
1	85303	5.99246073897	0
1	85449	6.00246073897	0
1	85593	6.01246073897	0
1	85728	6.02246073897	0
1	85876	6.03246073897	0
1	86020	6.04246073897	0
1	86157	6.05246073897	0
1	86304	6.06246073897	0
1	86450	6.07246073897	0
1	86586	6.08246073897	0
1	86734	6.09246073897	0
1	86878	6.10246073897	0
1	87013	6.11246073897	0
1	87161	6.12246073897	0
1	87306	6.13246073897	0
1	87441	6.14246073897	0
1	87587	6.15246073897	0
1	87732	6.16246073897	0
1	87869	6.17246073897	0
1	88017	6.18246073897	0
1	88162	6.19246073897	0
1	88298	6.20246073897	0
1	88446	6.21246073897	0
1	88592	6.22246073897	0
1	88727	6.23246073897	0
1	88876	6.24246073897	0
1	89020	6.25246073897	0
1	89157	6.26246073897	0
1	89305	6.27246073897	0
1	89449	6.28246073897	0
1	89584	6.29246073897	0
1	89731	6.30246073897	0
1	89875	6.31246073897	0
1	90012	6.32246073897	0
1	90158	6.33246073897	0
1	90302	6.34246073897	0
1	90438	6.35246073897	0
1	90585	6.36246073897	0
1	90729	6.37246073897	0
1	90866	6.38246073897	0
1	91014	6.39246073897	0
1	91161	6.40246073897	0
1	91297	6.41246073897	0
1	91443	6.42246073897	0
1	91588	6.43246073897	0
1	91723	6.44246073897	0
1	91869	6.45246073897	0
1	92012	6.46246073897	0
1	92148	6.47246073897	0
1	92296	6.48246073897	0
1	92440	6.49246073897	0
1	92578	6.50246073897	0
1	92727	6.51246073897	0
1	92873	6.52246073897	0
1	93008	6.53246073897	0
1	93157	6.54246073897	0
1	93303	6.55246073897	0
1	93439	6.56246073897	0
1	93585	6.57246073897	0
1	93729	6.58246073897	0
1	93865	6.59246073897	0
1	94014	6.60246073897	0
1	94158	6.61246073897	0
1	94294	6.62246073897	0
1	94443	6.63246073897	0
1	94588	6.64246073897	0
1	94723	6.65246073897	0
1	94871	6.66246073897	0
1	95016	6.67246073897	0
1	95152	6.68246073897	0
1	95300	6.69246073897	0
1	95445	6.70246073897	0
1	95581	6.71246073897	0
1	95727	6.72246073897	0
1	95870	6.73246073897	0
1	96005	6.74246073897	0
1	96153	6.75246073897	0
1	96296	6.76246073897	0
1	96434	6.77246073897	0
1	96580	6.78246073897	0
1	96723	6.79246073897	0
1	96858	6.80246073897	0
1	97004	6.81246073897	0
1	97149	6.82246073897	0
1	97285	6.83246073897	0
1	97431	6.84246073897	0
1	97574	6.85246073897	0
1	97712	6.86246073897	0
1	97859	6.87246073897	0
1	98004	6.88246073897	0
1	98142	6.89246073897	0
1	98289	6.90246073897	0
1	98433	6.91246073897	0
1	98570	6.92246073897	0
1	98718	6.93246073897	0
1	98862	6.94246073897	0
1	98997	6.95246073897	0
1	99143	6.96246073897	0
1	99286	6.97246073897	0
1	99423	6.98246073897	0
1	99570	6.99246073897	0
1	99714	7.00246073897	0
1	99850	7.01246073897	0
1	100000	7.02246073897	0
1	100146	7.03246073897	0
1	100283	7.04246073897	0
1	100433	7.05246073897	0
1	100577	7.06246073897	0
1	100715	7.07246073897	0
1	100862	7.08246073897	0
1	101006	7.09246073897	0
1	101143	7.10246073897	0
1	101289	7.11246073897	0
1	101435	7.12246073897	0
1	101572	7.13246073897	0
1	101718	7.14246073897	0
1	101863	7.15246073897	0
1	102000	7.16246073897	0
1	102147	7.17246073897	0
1	102292	7.18246073897	0
1	102428	7.19246073897	0
1	102576	7.20246073897	0
1	102720	7.21246073897	0
1	102857	7.22246073897	0
1	103007	7.23246073897	0
1	103153	7.24246073897	0
1	103290	7.25246073897	0
1	103437	7.26246073897	0
1	103583	7.27246073897	0
1	103719	7.28246073897	0
1	103866	7.29246073897	0
1	104009	7.30246073897	0
1	104146	7.31246073897	0
1	104296	7.32246073897	0
1	104442	7.33246073897	0
1	104577	7.34246073897	0
1	104724	7.35246073897	0
1	104868	7.36246073897	0
1	105004	7.37246073897	0
1	105151	7.38246073897	0
1	105296	7.39246073897	0
1	105432	7.40246073897	0
1	105580	7.41246073897	0
1	105725	7.42246073897	0
1	105861	7.43246073897	0
1	106008	7.44246073897	0
1	106151	7.45246073897	0
1	106288	7.46246073897	0
1	106436	7.47246073897	0
1	106581	7.48246073897	0
1	106717	7.49246073897	0
1	106864	7.50246073897	0
1	107010	7.51246073897	0
1	107145	7.52246073897	0
1	107292	7.53246073897	0
1	107435	7.54246073897	0
1	107571	7.55246073897	0
1	107717	7.56246073897	0
1	107860	7.57246073897	0
1	107997	7.58246073897	0
1	108144	7.59246073897	0
1	108288	7.60246073897	0
1	108424	7.61246073897	0
1	108574	7.62246073897	0
1	108717	7.63246073897	0
1	108854	7.64246073897	0
1	109001	7.65246073897	0
1	109145	7.66246073897	0
1	109283	7.67246073897	0
1	109429	7.68246073897	0
1	109573	7.69246073897	0
1	109708	7.70246073897	0
1	109855	7.71246073897	0
1	109998	7.72246073897	0
1	110133	7.73246073897	0
1	110279	7.74246073897	0
1	110422	7.75246073897	0
1	110557	7.76246073897	0
1	110704	7.77246073897	0
1	110850	7.78246073897	0
1	110987	7.79246073897	0
1	111139	7.80246073897	0
1	111285	7.81246073897	0
1	111420	7.82246073897	0
1	111566	7.83246073897	0
1	111710	7.84246073897	0
1	111847	7.85246073897	0
1	111993	7.86246073897	0
1	112137	7.87246073897	0
1	112272	7.88246073897	0
1	112420	7.89246073897	0
1	112565	7.90246073897	0
1	112702	7.91246073897	0
1	112851	7.92246073897	0
1	112996	7.93246073897	0
1	113132	7.94246073897	0
1	113278	7.95246073897	0
1	113422	7.96246073897	0
1	113558	7.97246073897	0
1	113705	7.98246073897	0
1	113849	7.99246073897	0
1	113985	8.00246073897	0
1	114133	8.01246073897	0
1	114276	8.02246073897	0
1	114412	8.03246073897	0
1	114560	8.04246073897	0
1	114709	8.05246073897	0
1	114844	8.06246073897	0
1	114992	8.07246073897	0
1	115136	8.08246073897	0
1	115272	8.09246073897	0
1	115419	8.10246073897	0
1	115566	8.11246073897	0
1	115702	8.12246073897	0
1	115849	8.13246073897	0
1	115993	8.14246073897	0
1	116130	8.15246073897	0
1	116276	8.16246073897	0
1	116420	8.17246073897	0
1	116555	8.18246073897	0
1	116701	8.19246073897	0
1	116844	8.20246073897	0
1	116980	8.21246073897	0
1	117127	8.22246073897	0
1	117272	8.23246073897	0
1	117410	8.24246073897	0
1	117558	8.25246073897	0
1	117704	8.26246073897	0
1	117841	8.27246073897	0
1	117988	8.28246073897	0
1	118133	8.29246073897	0
1	118269	8.30246073897	0
1	118418	8.31246073897	0
1	118561	8.32246073897	0
1	118697	8.33246073897	0
1	118844	8.34246073897	0
1	118987	8.35246073897	0
1	119122	8.36246073897	0
1	119270	8.37246073897	0
1	119413	8.38246073897	0
1	119549	8.39246073897	0
1	119695	8.40246073897	0
1	119839	8.41246073897	0
1	119974	8.42246073897	0
1	120122	8.43246073897	0
1	120265	8.44246073897	0
1	120402	8.45246073897	0
1	120548	8.46246073897	0
1	120692	8.47246073897	0
1	120829	8.48246073897	0
1	120980	8.49246073897	0
1	121127	8.50246073897	0
1	121263	8.51246073897	0
1	121409	8.52246073897	0
1	121554	8.53246073897	0
1	121691	8.54246073897	0
1	121838	8.55246073897	0
1	121982	8.56246073897	0
1	122119	8.57246073897	0
1	122267	8.58246073897	0
1	122410	8.59246073897	0
1	122547	8.60246073897	0
1	122694	8.61246073897	0
1	122839	8.62246073897	0
1	122976	8.63246073897	0
1	123124	8.64246073897	0
1	123267	8.65246073897	0
1	123403	8.66246073897	0
1	123551	8.67246073897	0
1	123696	8.68246073897	0
1	123833	8.69246073897	0
1	123979	8.70246073897	0
1	124122	8.71246073897	0
1	124259	8.72246073897	0
1	124405	8.73246073897	0
1	124551	8.74246073897	0
1	124688	8.75246073897	0
1	124835	8.76246073897	0
1	124979	8.77246073897	0
1	125115	8.78246073897	0
1	125261	8.79246073897	0
1	125405	8.80246073897	0
1	125541	8.81246073897	0
1	125688	8.82246073897	0
1	125833	8.83246073897	0
1	125969	8.84246073897	0
1	126117	8.85246073897	0
1	126262	8.86246073897	0
1	126403	8.87246073897	0
1	126550	8.88246073897	0
1	126694	8.89246073897	0
1	126832	8.90246073897	0
1	126980	8.91246073897	0
1	127124	8.92246073897	0
1	127261	8.93246073897	0
1	127408	8.94246073897	0
1	127551	8.95246073897	0
1	127687	8.96246073897	0
1	127833	8.97246073897	0
1	127978	8.98246073897	0
1	128115	8.99246073897	0
1	128264	9.00246073897	0
1	128408	9.01246073897	0
1	128544	9.02246073897	0
1	128691	9.03246073897	0
1	128835	9.04246073897	0
1	128974	9.05246073897	0
1	129122	9.06246073897	0
1	129267	9.07246073897	0
[...]
137	112376	7.888	1
137	112384	7.889	1
137	112524	7.898	1
137	112532	7.899	1
137	112668	7.908	1
137	112677	7.909	1
137	112806	7.918	1
137	112814	7.919	1
137	112954	7.928	1
137	112962	7.929	1
137	113098	7.938	1
137	113107	7.939	1
137	113234	7.948	1
137	113242	7.949	1
137	113381	7.958	1
137	113389	7.959	1
137	113525	7.968	1
137	113534	7.969	1
137	113661	7.978	1
137	113669	7.979	1
137	113808	7.988	1
137	113816	7.989	1
137	113952	7.998	1
137	113961	7.999	1
137	114089	8.008	1
137	114097	8.009	1
137	114235	8.018	1
137	114243	8.019	1
137	114378	8.028	1
137	114387	8.029	1
137	114515	8.038	1
137	114524	8.039	1
137	114665	8.048	1
137	114674	8.049	1
137	114811	8.058	1
137	114820	8.059	1
137	114948	8.068	1
137	114956	8.069	1
137	115095	8.078	1
137	115103	8.079	1
137	115239	8.088	1
137	115248	8.089	1
137	115374	8.098	1
137	115383	8.099	1
137	115523	8.108	1
137	115532	8.109	1
137	115669	8.118	1
137	115678	8.119	1
137	115804	8.128	1
137	115812	8.129	1
137	115952	8.138	1
137	115960	8.139	1
137	116097	8.148	1
137	116106	8.149	1
137	116232	8.158	1
137	116240	8.159	1
137	116378	8.168	1
137	116387	8.169	1
137	116522	8.178	1
137	116531	8.179	1
137	116657	8.188	1
137	116665	8.189	1
137	116803	8.198	1
137	116811	8.199	1
137	116947	8.208	1
137	116956	8.209	1
137	117083	8.218	1
137	117091	8.219	1
137	117231	8.228	1
137	117239	8.229	1
137	117376	8.238	1
137	117385	8.239	1
137	117514	8.248	1
137	117522	8.249	1
137	117661	8.258	1
137	117669	8.259	1
137	117808	8.268	1
137	117817	8.269	1
137	117943	8.278	1
137	117951	8.279	1
137	118092	8.288	1
137	118100	8.289	1
137	118236	8.298	1
137	118245	8.299	1
137	118372	8.308	1
137	118381	8.309	1
137	118520	8.318	1
137	118528	8.319	1
137	118664	8.328	1
137	118673	8.329	1
137	118799	8.338	1
137	118807	8.339	1
137	118946	8.348	1
137	118954	8.349	1
137	119089	8.358	1
137	119098	8.359	1
137	119226	8.368	1
137	119234	8.369	1
137	119372	8.378	1
137	119380	8.379	1
137	119515	8.388	1
137	119524	8.389	1
137	119651	8.398	1
137	119659	8.399	1
137	119798	8.408	1
137	119806	8.409	1
137	119941	8.418	1
137	119950	8.419	1
137	120077	8.428	1
137	120085	8.429	1
137	120224	8.438	1
137	120232	8.439	1
137	120368	8.448	1
137	120377	8.449	1
137	120504	8.458	1
137	120512	8.459	1
137	120651	8.468	1
137	120659	8.469	1
137	120796	8.478	1
137	120805	8.479	1
137	120934	8.488	1
137	120943	8.489	1
137	121084	8.498	1
137	121092	8.499	1
137	121230	8.508	1
137	121239	8.509	1
137	121365	8.518	1
137	121373	8.519	1
137	121512	8.528	1
137	121520	8.529	1
137	121657	8.538	1
137	121667	8.539	1
137	121794	8.548	1
137	121802	8.549	1
137	121940	8.558	1
137	121949	8.559	1
137	122086	8.568	1
137	122095	8.569	1
137	122223	8.578	1
137	122231	8.579	1
137	122369	8.588	1
137	122377	8.589	1
137	122513	8.598	1
137	122523	8.599	1
137	122650	8.608	1
137	122658	8.609	1
137	122797	8.618	1
137	122805	8.619	1
137	122942	8.628	1
137	122952	8.629	1
137	123080	8.638	1
137	123088	8.639	1
137	123226	8.648	1
137	123234	8.649	1
137	123370	8.658	1
137	123379	8.659	1
137	123505	8.668	1
137	123514	8.669	1
137	123653	8.678	1
137	123661	8.679	1
137	123800	8.688	1
137	123809	8.689	1
137	123935	8.698	1
137	123943	8.699	1
137	124081	8.708	1
137	124089	8.709	1
137	124225	8.718	1
137	124234	8.719	1
137	124361	8.728	1
137	124369	8.729	1
137	124508	8.738	1
137	124517	8.739	1
137	124655	8.748	1
137	124664	8.749	1
137	124791	8.758	1
137	124799	8.759	1
137	124937	8.768	1
137	124945	8.769	1
137	125082	8.778	1
137	125091	8.779	1
137	125217	8.788	1
137	125225	8.789	1
137	125364	8.798	1
137	125372	8.799	1
137	125508	8.808	1
137	125517	8.809	1
137	125644	8.818	1
137	125652	8.819	1
137	125791	8.828	1
137	125800	8.829	1
137	125935	8.838	1
137	125944	8.839	1
137	126073	8.848	1
137	126081	8.849	1
137	126220	8.858	1
137	126229	8.859	1
137	126369	8.868	1
137	126379	8.869	1
137	126505	8.878	1
137	126513	8.879	1
137	126652	8.888	1
137	126660	8.889	1
137	126797	8.898	1
137	126807	8.899	1
137	126935	8.908	1
137	126943	8.909	1
137	127083	8.918	1
137	127091	8.919	1
137	127227	8.928	1
137	127236	8.929	1
137	127364	8.938	1
137	127372	8.939	1
137	127510	8.948	1
137	127518	8.949	1
137	127653	8.958	1
137	127663	8.959	1
137	127789	8.968	1
137	127797	8.969	1
137	127936	8.978	1
137	127944	8.979	1
137	128081	8.988	1
137	128091	8.989	1
137	128220	8.998	1
137	128228	8.999	1
137	128366	9.008	1
137	128374	9.009	1
137	128510	9.018	1
137	128519	9.019	1
137	128647	9.028	1
137	128655	9.029	1
137	128794	9.038	1
137	128802	9.039	1
137	128940	9.048	1
137	128949	9.049	1
137	129078	9.058	1
137	129086	9.059	1
137	129226	9.068	1
137	129234	9.069	1
137	129371	9.078	1
137	129381	9.079	1
137	129508	9.088	1
137	129516	9.089	1
137	129656	9.098	1
137	129665	9.099	1
137	129802	9.108	1
137	129811	9.109	1
137	129939	9.118	1
137	129947	9.119	1
137	130085	9.128	1
137	130094	9.129	1
137	130231	9.138	1
137	130240	9.139	1
137	130370	9.148	1
137	130378	9.149	1
137	130517	9.158	1
137	130526	9.159	1
137	130662	9.168	1
137	130671	9.169	1
137	130799	9.178	1
137	130808	9.179	1
137	130951	9.188	1
137	130959	9.189	1
137	131095	9.198	1
137	131104	9.199	1
137	131231	9.208	1
137	131239	9.209	1
137	131378	9.218	1
137	131386	9.219	1
137	131524	9.228	1
137	131533	9.229	1
137	131660	9.238	1
137	131668	9.239	1
137	131806	9.248	1
137	131814	9.249	1
137	131951	9.258	1
137	131960	9.259	1
137	132086	9.268	1
137	132094	9.269	1
137	132232	9.278	1
137	132240	9.279	1
137	132376	9.288	1
137	132385	9.289	1
137	132513	9.298	1
137	132521	9.299	1
137	132660	9.308	1
137	132669	9.309	1
137	132806	9.318	1
137	132815	9.319	1
137	132942	9.328	1
137	132950	9.329	1
137	133092	9.338	1
137	133100	9.339	1
137	133235	9.348	1
137	133244	9.349	1
137	133372	9.358	1
137	133380	9.359	1
137	133520	9.368	1
137	133528	9.369	1
137	133663	9.378	1
137	133673	9.379	1
137	133801	9.388	1
137	133809	9.389	1
137	133947	9.398	1
137	133956	9.399	1
137	134092	9.408	1
137	134101	9.409	1
137	134233	9.418	1
137	134241	9.419	1
137	134381	9.428	1
137	134389	9.429	1
137	134524	9.438	1
137	134534	9.439	1
137	134661	9.448	1
137	134669	9.449	1
137	134808	9.458	1
137	134817	9.459	1
137	134954	9.468	1
137	134963	9.469	1
137	135090	9.478	1
137	135098	9.479	1
137	135237	9.488	1
137	135245	9.489	1
137	135381	9.498	1
137	135391	9.499	1
137	135518	9.508	1
137	135526	9.509	1
137	135666	9.518	1
137	135675	9.519	1
137	135813	9.528	1
137	135822	9.529	1
137	135949	9.538	1
137	135957	9.539	1
137	136096	9.548	1
137	136104	9.549	1
137	136240	9.558	1
137	136249	9.559	1
137	136376	9.568	1
137	136384	9.569	1
137	136526	9.578	1
137	136535	9.579	1
137	136671	9.588	1
137	136680	9.589	1
137	136807	9.598	1
137	136815	9.599	1
137	136954	9.608	1
137	136962	9.609	1
137	137099	9.618	1
137	137109	9.619	1
137	137237	9.628	1
137	137246	9.629	1
137	137385	9.638	1
137	137394	9.639	1
137	137530	9.648	1
137	137539	9.649	1
137	137665	9.658	1
137	137673	9.659	1
137	137812	9.668	1
137	137820	9.669	1
137	137955	9.678	1
137	137964	9.679	1
137	138092	9.688	1
137	138101	9.689	1
137	138239	9.698	1
137	138248	9.699	1
137	138384	9.708	1
137	138393	9.709	1
137	138522	9.718	1
137	138530	9.719	1
137	138670	9.728	1
137	138678	9.729	1
137	138815	9.738	1
137	138824	9.739	1
137	138951	9.748	1
137	138959	9.749	1
137	139099	9.758	1
137	139107	9.759	1
137	139243	9.768	1
137	139253	9.769	1
137	139381	9.778	1
137	139389	9.779	1
137	139528	9.788	1
137	139536	9.789	1
137	139673	9.798	1
137	139682	9.799	1
137	139809	9.808	1
137	139818	9.809	1
137	139959	9.818	1
137	139967	9.819	1
137	140104	9.828	1
137	140113	9.829	1
137	140239	9.838	1
137	140247	9.839	1
137	140387	9.848	1
137	140396	9.849	1
137	140532	9.858	1
137	140541	9.859	1
137	140670	9.868	1
137	140679	9.869	1
137	140818	9.878	1
137	140826	9.879	1
137	140962	9.888	1
137	140971	9.889	1
137	141098	9.898	1
137	141106	9.899	1
137	141245	9.908	1
137	141254	9.909	1
137	141389	9.918	1
137	141399	9.919	1
137	141527	9.928	1
137	141535	9.929	1
137	141674	9.938	1
137	141683	9.939	1
137	141818	9.948	1
137	141827	9.949	1
137	141955	9.958	1
137	141963	9.959	1
137	142102	9.968	1
137	142110	9.969	1
137	142246	9.978	1
137	142255	9.979	1
137	142384	9.988	1
137	142392	9.989	1
137	142531	9.998	1
137	142539	9.999	1
138	14271	1.015	2
138	18041	1.281	8
138	19833	1.405	2
138	23675	1.674	2
138	23750	1.68	8
138	25816	1.824	2
138	28817	2.034	2
138	30953	2.184	2
138	35171	2.481	8
138	35276	2.488	2
138	35292	2.489	2
138	35311	2.49	8
138	35676	2.515	2
138	37376	2.634	2
138	38672	2.725	2
138	40811	2.875	2
138	43815	3.085	2
138	46385	3.265	2
138	46801	3.294	2
138	51081	3.594	2
138	51949	3.655	2
138	53652	3.774	2
138	55364	3.894	2
138	58735	4.131	8
138	58799	4.134	2
138	58812	4.135	2
138	62240	4.375	2
138	64302	4.521	8
138	64798	4.554	2
138	64811	4.555	2
138	64880	4.561	8
138	65664	4.615	2
138	66947	4.705	2
138	69935	4.914	2
138	77232	5.425	2
138	77648	5.454	2
138	82782	5.814	2
138	83219	5.845	2
138	86636	6.084	2
138	87504	6.145	2
138	89634	6.294	2
138	90852	6.381	8
138	91773	6.444	2
138	93072	6.535	2
138	93140	6.541	8
138	94786	6.655	2
138	102063	7.165	2
138	102131	7.171	8
138	107208	7.525	2
138	107621	7.554	2
138	111470	7.824	2
138	111910	7.855	2
138	112688	7.911	8
138	112765	7.915	2
138	112835	7.921	8
138	119599	8.394	2
138	120452	8.454	2
138	135051	9.475	2
138	135897	9.534	2
138	137613	9.654	2
138	137687	9.66	8
138	138468	9.714	2
138	138551	9.721	8
138	141473	9.924	2
139	14271	1.015	0
139	18041	1.281	0
139	19833	1.405	0
139	23675	1.674	1
139	23750	1.68	0
139	25816	1.824	0
139	28817	2.034	0
139	30953	2.184	0
139	35171	2.481	1
139	35276	2.488	0
139	35292	2.489	0
139	35311	2.49	0
139	35676	2.515	0
139	37376	2.634	0
139	38672	2.725	0
139	40811	2.875	0
139	43815	3.085	0
139	46385	3.265	0
139	46801	3.294	0
139	51081	3.594	0
139	51949	3.655	0
139	53652	3.774	0
139	55364	3.894	0
139	58735	4.131	0
139	58799	4.134	0
139	58812	4.135	0
139	62240	4.375	0
139	64302	4.521	0
139	64798	4.554	1
139	64811	4.555	0
139	64880	4.561	0
139	65664	4.615	0
139	66947	4.705	0
139	69935	4.914	0
139	77232	5.425	0
139	77648	5.454	0
139	82782	5.814	0
139	83219	5.845	0
139	86636	6.084	0
139	87504	6.145	0
139	89634	6.294	0
139	90852	6.381	0
139	91773	6.444	0
139	93072	6.535	1
139	93140	6.541	0
139	94786	6.655	0
139	102063	7.165	1
139	102131	7.171	0
139	107208	7.525	0
139	107621	7.554	0
139	111470	7.824	0
139	111910	7.855	0
139	112688	7.911	0
139	112765	7.915	1
139	112835	7.921	0
139	119599	8.394	0
139	120452	8.454	0
139	135051	9.475	0
139	135897	9.534	0
139	137613	9.654	1
139	137687	9.66	0
139	138468	9.714	1
139	138551	9.721	0
139	141473	9.924	0
140	14698	1.045	2
140	15111	1.074	2
140	16818	1.194	2
140	18118	1.285	2
140	18186	1.291	6
140	19843	1.406	2
140	20676	1.464	2
140	23246	1.644	2
140	23321	1.65	6
140	24534	1.734	2
140	25387	1.794	2
140	27535	1.944	2
140	30539	2.155	2
140	31382	2.214	2
140	32253	2.275	2
140	35249	2.485	2
140	36946	2.604	2
140	45085	3.174	2
140	46372	3.264	2
140	46814	3.295	2
140	48100	3.385	2
140	51522	3.625	2
140	52794	3.714	2
140	53238	3.745	2
140	54508	3.834	2
140	57095	4.015	2
140	61816	4.345	2
140	65237	4.585	2
140	70803	4.975	2
140	72941	5.124	2
140	73367	5.154	2
140	75935	5.334	2
140	78931	5.544	2
140	79787	5.604	2
140	80213	5.634	2
140	81084	5.695	2
140	82356	5.784	2
140	82795	5.815	2
140	84076	5.905	2
140	84086	5.906	2
140	85778	6.024	2
140	85852	6.03	6
140	86207	6.054	2
140	86649	6.085	2
140	86718	6.091	6
140	90062	6.324	2
140	90511	6.356	2
140	94773	6.654	2
140	95226	6.686	2
140	96068	6.745	2
140	96908	6.804	2
140	99473	6.984	2
140	99547	6.99	6
140	101193	7.104	2
140	102478	7.194	2
140	104209	7.315	2
140	109346	7.675	2
140	109772	7.705	2
140	111037	7.794	2
140	111122	7.801	6
140	111483	7.825	2
140	119612	8.395	2
140	121313	8.514	2
140	123453	8.664	2
140	123535	8.671	6
140	124309	8.724	2
140	125178	8.785	2
140	126883	8.904	2
140	126957	8.91	6
140	129024	9.054	2
140	130315	9.144	2
140	131608	9.234	2
140	132890	9.324	2
140	132964	9.33	6
140	134621	9.445	2
140	135478	9.505	2
140	137184	9.624	2
140	138053	9.685	2
140	138481	9.715	2
140	138899	9.744	2
140	140187	9.834	2
140	140261	9.84	6
141	14698	1.045	0
141	15111	1.074	0
141	16818	1.194	0
141	18118	1.285	1
141	18186	1.291	0
141	19843	1.406	0
141	20676	1.464	0
141	23246	1.644	1
141	23321	1.65	0
141	24534	1.734	0
141	25387	1.794	0
141	27535	1.944	0
141	30539	2.155	0
141	31382	2.214	0
141	32253	2.275	0
141	35249	2.485	0
141	36946	2.604	0
141	45085	3.174	0
141	46372	3.264	0
141	46814	3.295	0
141	48100	3.385	0
141	51522	3.625	0
141	52794	3.714	0
141	53238	3.745	0
141	54508	3.834	0
141	57095	4.015	0
141	61816	4.345	0
141	65237	4.585	0
141	70803	4.975	0
141	72941	5.124	0
141	73367	5.154	0
141	75935	5.334	0
141	78931	5.544	0
141	79787	5.604	0
141	80213	5.634	0
141	81084	5.695	0
141	82356	5.784	0
141	82795	5.815	0
141	84076	5.905	0
141	84086	5.906	0
141	85778	6.024	1
141	85852	6.03	0
141	86207	6.054	0
141	86649	6.085	1
141	86718	6.091	0
141	90062	6.324	0
141	90511	6.356	0
141	94773	6.654	0
141	95226	6.686	0
141	96068	6.745	0
141	96908	6.804	0
141	99473	6.984	1
141	99547	6.99	0
141	101193	7.104	0
141	102478	7.194	0
141	104209	7.315	0
141	109346	7.675	0
141	109772	7.705	0
141	111037	7.794	1
141	111122	7.801	0
141	111483	7.825	0
141	119612	8.395	0
141	121313	8.514	0
141	123453	8.664	1
141	123535	8.671	0
141	124309	8.724	0
141	125178	8.785	0
141	126883	8.904	1
141	126957	8.91	0
141	129024	9.054	0
141	130315	9.144	0
141	131608	9.234	0
141	132890	9.324	1
141	132964	9.33	0
141	134621	9.445	0
141	135478	9.505	0
141	137184	9.624	0
141	138053	9.685	0
141	138481	9.715	0
141	138899	9.744	0
141	140187	9.834	1
141	140261	9.84	0
142	15549	1.105	2
142	15962	1.134	2
142	20689	1.465	2
142	21103	1.494	2
142	24547	1.735	2
142	24615	1.741	8
142	25400	1.795	2
142	26688	1.885	2
142	26757	1.891	8
142	28830	2.035	2
142	28898	2.041	8
142	28993	2.047	8
142	29089	2.053	8
142	29259	2.065	2
142	33522	2.364	2
142	36091	2.544	2
142	36104	2.545	2
142	36532	2.575	2
142	36601	2.581	8
142	38245	2.695	2
142	42528	2.995	2
142	43802	3.084	2
142	44660	3.144	2
142	45958	3.235	2
142	47243	3.325	2
142	51094	3.595	2
142	52807	3.715	2
142	52875	3.721	8
142	54937	3.864	2
142	56221	3.954	2
142	62227	4.374	2
142	63939	4.494	2
142	66520	4.675	2
142	66934	4.704	2
142	67360	4.734	2
142	68648	4.824	2
142	69076	4.854	2
142	70376	4.945	2
142	72526	5.095	2
142	75520	5.305	2
142	75877	5.332	8
142	75948	5.335	2
142	76363	5.364	2
142	76789	5.394	2
142	76802	5.395	2
142	77219	5.424	2
142	77661	5.455	2
142	78505	5.514	2
142	78944	5.545	2
142	81514	5.725	2
142	82369	5.785	2
142	87491	6.144	2
142	91360	6.415	2
142	96055	6.744	2
142	99047	6.954	2
142	100779	7.075	2
142	101206	7.105	2
142	102050	7.164	2
142	102843	7.221	8
142	103769	7.284	2
142	108917	7.645	2
142	108985	7.651	8
142	111897	7.854	2
142	113118	7.941	8
142	113195	7.945	2
142	114035	8.004	2
142	114048	8.005	2
142	116605	8.184	2
142	117030	8.214	2
142	117396	8.241	8
142	117492	8.247	2
142	117500	8.248	2
142	117891	8.274	2
142	117965	8.28	8
142	118760	8.335	2
142	120024	8.424	2
142	120099	8.43	8
142	121754	8.545	2
142	122169	8.574	2
142	122182	8.575	2
142	125592	8.814	2
142	125605	8.815	2
142	126453	8.874	2
142	127324	8.935	2
142	127334	8.936	2
142	129455	9.084	2
142	129468	9.085	2
142	132034	9.264	2
142	132473	9.295	2
142	132903	9.325	2
142	133319	9.354	2
142	133332	9.355	2
142	133401	9.361	8
142	134112	9.411	8
142	134254	9.42	8
142	134261	9.421	8
142	134608	9.444	2
142	135038	9.474	2
142	136754	9.594	2
142	137626	9.655	2
142	139756	9.804	2
142	141046	9.894	2
142	142343	9.985	2
143	15549	1.105	0
143	15962	1.134	0
143	20689	1.465	0
143	21103	1.494	0
143	24547	1.735	1
143	24615	1.741	0
143	25400	1.795	0
143	26688	1.885	1
143	26757	1.891	0
143	28830	2.035	1
143	28898	2.041	1
143	28993	2.047	1
143	29089	2.053	0
143	29259	2.065	0
143	33522	2.364	0
143	36091	2.544	0
143	36104	2.545	0
143	36532	2.575	1
143	36601	2.581	0
143	38245	2.695	0
143	42528	2.995	0
143	43802	3.084	0
143	44660	3.144	0
143	45958	3.235	0
143	47243	3.325	0
143	51094	3.595	0
143	52807	3.715	1
143	52875	3.721	0
143	54937	3.864	0
143	56221	3.954	0
143	62227	4.374	0
143	63939	4.494	0
143	66520	4.675	0
143	66934	4.704	0
143	67360	4.734	0
143	68648	4.824	0
143	69076	4.854	0
143	70376	4.945	0
143	72526	5.095	0
143	75520	5.305	0
143	75877	5.332	0
143	75948	5.335	0
143	76363	5.364	0
143	76789	5.394	0
143	76802	5.395	0
143	77219	5.424	0
143	77661	5.455	0
143	78505	5.514	0
143	78944	5.545	0
143	81514	5.725	0
143	82369	5.785	0
143	87491	6.144	0
143	91360	6.415	0
143	96055	6.744	0
143	99047	6.954	0
143	100779	7.075	0
143	101206	7.105	0
143	102050	7.164	0
143	102843	7.221	0
143	103769	7.284	0
143	108917	7.645	1
143	108985	7.651	0
143	111897	7.854	0
143	113118	7.941	0
143	113195	7.945	0
143	114035	8.004	0
143	114048	8.005	0
143	116605	8.184	0
143	117030	8.214	0
143	117396	8.241	1
143	117492	8.247	0
143	117500	8.248	0
143	117891	8.274	1
143	117965	8.28	0
143	118760	8.335	0
143	120024	8.424	1
143	120099	8.43	0
143	121754	8.545	0
143	122169	8.574	0
143	122182	8.575	0
143	125592	8.814	0
143	125605	8.815	0
143	126453	8.874	0
143	127324	8.935	0
143	127334	8.936	0
143	129455	9.084	0
143	129468	9.085	0
143	132034	9.264	0
143	132473	9.295	0
143	132903	9.325	0
143	133319	9.354	0
143	133332	9.355	1
143	133401	9.361	0
143	134112	9.411	1
143	134254	9.42	0
143	134261	9.421	0
143	134608	9.444	0
143	135038	9.474	0
143	136754	9.594	0
143	137626	9.655	0
143	139756	9.804	0
143	141046	9.894	0
143	142343	9.985	0
144	17181	1.221	8
144	18105	1.284	2
144	20245	1.434	2
144	20320	1.44	8
144	22405	1.585	2
144	23259	1.645	2
144	24105	1.704	2
144	28392	2.004	2
144	34820	2.455	2
144	37740	2.661	8
144	39942	2.814	2
144	41229	2.904	2
144	41242	2.905	2
144	45945	3.234	2
144	48087	3.384	2
144	48942	3.444	2
144	49016	3.45	8
144	51509	3.624	2
144	51584	3.63	8
144	68661	4.825	2
144	72079	5.064	2
144	72513	5.094	2
144	75091	5.275	2
144	75507	5.304	2
144	81928	5.754	2
144	82002	5.76	8
144	82097	5.766	8
144	84063	5.904	2
144	84860	5.961	8
144	91347	6.414	2
144	97698	6.861	8
144	98620	6.924	2
144	101635	7.135	2
144	103782	7.285	2
144	104196	7.314	2
144	106767	7.494	2
144	109759	7.704	2
144	112752	7.914	2
144	117474	8.245	2
144	120047	8.426	2
144	124738	8.754	2
144	126896	8.905	2
144	127311	8.934	2
144	132047	9.265	2
144	132396	9.291	8
144	132491	9.297	2
144	132499	9.298	2
144	132515	9.299	2
144	132534	9.3	8
144	135465	9.504	2
144	135540	9.51	8
145	17181	1.221	0
145	18105	1.284	0
145	20245	1.434	1
145	20320	1.44	0
145	22405	1.585	0
145	23259	1.645	0
145	24105	1.704	0
145	28392	2.004	0
145	34820	2.455	0
145	37740	2.661	0
145	39942	2.814	0
145	41229	2.904	0
145	41242	2.905	0
145	45945	3.234	0
145	48087	3.384	0
145	48942	3.444	1
145	49016	3.45	0
145	51509	3.624	1
145	51584	3.63	0
145	68661	4.825	0
145	72079	5.064	0
145	72513	5.094	0
145	75091	5.275	0
145	75507	5.304	0
145	81928	5.754	1
145	82002	5.76	1
145	82097	5.766	0
145	84063	5.904	0
145	84860	5.961	0
145	91347	6.414	0
145	97698	6.861	0
145	98620	6.924	0
145	101635	7.135	0
145	103782	7.285	0
145	104196	7.314	0
145	106767	7.494	0
145	109759	7.704	0
145	112752	7.914	0
145	117474	8.245	0
145	120047	8.426	0
145	124738	8.754	0
145	126896	8.905	0
145	127311	8.934	0
145	132047	9.265	0
145	132396	9.291	1
145	132491	9.297	0
145	132499	9.298	0
145	132515	9.299	0
145	132534	9.3	0
145	135465	9.504	1
145	135540	9.51	0
146	17245	1.224	2
146	28405	2.005	2
146	40798	2.874	2
146	56234	3.955	2
146	56651	3.984	2
146	65224	4.584	2
146	66507	4.674	2
146	70363	4.944	2
146	74235	5.215	2
146	76376	5.365	2
146	79359	5.574	2
146	79372	5.575	2
146	79440	5.581	6
146	96497	6.775	2
146	97762	6.864	2
146	99902	7.014	2
146	100766	7.074	2
146	102491	7.195	2
146	102560	7.201	6
146	102920	7.225	2
146	102990	7.231	6
146	111050	7.795	2
146	117043	8.215	2
146	128607	9.025	2
146	141059	9.895	2
147	17245	1.224	0
147	28405	2.005	0
147	40798	2.874	0
147	56234	3.955	0
147	56651	3.984	0
147	65224	4.584	0
147	66507	4.674	0
147	70363	4.944	0
147	74235	5.215	0
147	76376	5.365	0
147	79359	5.574	0
147	79372	5.575	1
147	79440	5.581	0
147	96497	6.775	0
147	97762	6.864	0
147	99902	7.014	0
147	100766	7.074	0
147	102491	7.195	1
147	102560	7.201	0
147	102920	7.225	1
147	102990	7.231	0
147	111050	7.795	0
147	117043	8.215	0
147	128607	9.025	0
147	141059	9.895	0
148	142547	10	100000

